examples/feeders/CERTEL/CER3_2_33/Trafos_CER3_2_33.dss
New Transformer.IT25_10034 phases=1 Windings=3 Xhl=0.5 %loadLoss =0.5 %noloadLoss =0.2
 ~ wdg=1 bus=141814_1.2 conn= Wye kv=8.08 kva=15 tap=0.943
 ~ wdg=2 bus=BT_25_10034.1.0  conn= Wye kv=0.22 kva=15 tap=1
 ~ wdg=3 bus=BT_25_10034.0.2  conn= Wye kv=0.22 kva=15 tap=1

New Transformer.IT25_10112 phases=1 Windings=3 Xhl=0.5 %loadLoss =0.5 %noloadLoss =0.2
 ~ wdg=1 bus=141993_1.3 conn= Wye kv=8.08 kva=25 tap=0.943
 ~ wdg=2 bus=BT_25_10112.1.0  conn= Wye kv=0.22 kva=25 tap=1
 ~ wdg=3 bus=BT_25_10112.0.2  conn= Wye kv=0.22 kva=25 tap=1

New Transformer.IT25_10113 phases=1 Windings=3 Xhl=0.5 %loadLoss =0.5 %noloadLoss =0.2
 ~ wdg=1 bus=31509_1.1 conn= Wye kv=8.08 kva=25 tap=0.9
 ~ wdg=2 bus=BT_25_10113.1.0  conn= Wye kv=0.22 kva=25 tap=1
 ~ wdg=3 bus=BT_25_10113.0.2  conn= Wye kv=0.22 kva=25 tap=1

New Transformer.IT25_10177 phases=1 Windings=3 Xhl=0.5 %loadLoss =0.5 %noloadLoss =0.2
 ~ wdg=1 bus=143095_1.3 conn= Wye kv=8.08 kva=15 tap=0.9
 ~ wdg=2 bus=BT_25_10177.1.0  conn= Wye kv=0.22 kva=15 tap=1
 ~ wdg=3 bus=BT_25_10177.0.2  conn= Wye kv=0.22 kva=15 tap=1

New Transformer.IT25_10207 phases=1 Windings=3 Xhl=0.5 %loadLoss =0.5 %noloadLoss =0.2
 ~ wdg=1 bus=49212_1.3 conn= Wye kv=8.08 kva=15 tap=0.943
 ~ wdg=2 bus=BT_25_10207.1.0  conn= Wye kv=0.22 kva=15 tap=1
 ~ wdg=3 bus=BT_25_10207.0.2  conn= Wye kv=0.22 kva=15 tap=1

New Transformer.IT25_10383 phases=1 Windings=3 Xhl=0.5 %loadLoss =0.5 %noloadLoss =0.2
 ~ wdg=1 bus=99887_1.1 conn= Wye kv=8.08 kva=15 tap=0.943
 ~ wdg=2 bus=BT_25_10383.1.0  conn= Wye kv=0.22 kva=15 tap=1
 ~ wdg=3 bus=BT_25_10383.0.2  conn= Wye kv=0.22 kva=15 tap=1

New Transformer.IT25_10446 phases=3 Windings=2 Xhl=0.5 %loadLoss =1.65 %noloadLoss =0.41
 ~ wdg=1 bus=134977_1 conn= Delta kv=14 kva=45 tap=0.986
 ~ wdg=2 bus=BT_25_10446 conn= Wye kv=0.38 kva=45 tap=1

New Transformer.IT25_1165 phases=1 Windings=3 Xhl=0.5 %loadLoss =0.5 %noloadLoss =0.2
 ~ wdg=1 bus=31530_1.1 conn= Wye kv=8.08 kva=10 tap=0.9
 ~ wdg=2 bus=BT_25_1165.1.0  conn= Wye kv=0.22 kva=10 tap=1
 ~ wdg=3 bus=BT_25_1165.0.2  conn= Wye kv=0.22 kva=10 tap=1

New Transformer.IT25_1250 phases=1 Windings=3 Xhl=0.5 %loadLoss =0.5 %noloadLoss =0.2
 ~ wdg=1 bus=23065_1.2 conn= Wye kv=8.08 kva=25 tap=0.9
 ~ wdg=2 bus=BT_25_1250.1.0  conn= Wye kv=0.22 kva=25 tap=1
 ~ wdg=3 bus=BT_25_1250.0.2  conn= Wye kv=0.22 kva=25 tap=1

New Transformer.IT25_1251 phases=1 Windings=3 Xhl=0.5 %loadLoss =0.5 %noloadLoss =0.2
 ~ wdg=1 bus=33378_1.2 conn= Wye kv=8.08 kva=25 tap=0.986
 ~ wdg=2 bus=BT_25_1251.1.0  conn= Wye kv=0.22 kva=25 tap=1
 ~ wdg=3 bus=BT_25_1251.0.2  conn= Wye kv=0.22 kva=25 tap=1

New Transformer.IT25_1252 phases=1 Windings=3 Xhl=0.5 %loadLoss =0.5 %noloadLoss =0.2
 ~ wdg=1 bus=33395_1.2 conn= Wye kv=8.08 kva=15 tap=0.943
 ~ wdg=2 bus=BT_25_1252.1.0  conn= Wye kv=0.22 kva=15 tap=1
 ~ wdg=3 bus=BT_25_1252.0.2  conn= Wye kv=0.22 kva=15 tap=1

New Transformer.IT25_1253 phases=1 Windings=3 Xhl=0.5 %loadLoss =0.5 %noloadLoss =0.2
 ~ wdg=1 bus=95659_1.2 conn= Wye kv=8.08 kva=10 tap=0.9
 ~ wdg=2 bus=BT_25_1253.1.0  conn= Wye kv=0.22 kva=10 tap=1
 ~ wdg=3 bus=BT_25_1253.0.2  conn= Wye kv=0.22 kva=10 tap=1

New Transformer.IT25_1254 phases=1 Windings=3 Xhl=0.5 %loadLoss =0.5 %noloadLoss =0.2
 ~ wdg=1 bus=34222_1.2 conn= Wye kv=8.08 kva=15 tap=0.9
 ~ wdg=2 bus=BT_25_1254.1.0  conn= Wye kv=0.22 kva=15 tap=1
 ~ wdg=3 bus=BT_25_1254.0.2  conn= Wye kv=0.22 kva=15 tap=1

New Transformer.IT25_1354 phases=1 Windings=3 Xhl=0.5 %loadLoss =0.5 %noloadLoss =0.2
 ~ wdg=1 bus=33355_1.2 conn= Wye kv=8.08 kva=10 tap=0.857
 ~ wdg=2 bus=BT_25_1354.1.0  conn= Wye kv=0.22 kva=10 tap=1
 ~ wdg=3 bus=BT_25_1354.0.2  conn= Wye kv=0.22 kva=10 tap=1

New Transformer.IT25_1382 phases=1 Windings=3 Xhl=0.5 %loadLoss =0.5 %noloadLoss =0.2
 ~ wdg=1 bus=53648_1.1 conn= Wye kv=8.08 kva=15 tap=0.943
 ~ wdg=2 bus=BT_25_1382.1.0  conn= Wye kv=0.22 kva=15 tap=1
 ~ wdg=3 bus=BT_25_1382.0.2  conn= Wye kv=0.22 kva=15 tap=1

New Transformer.IT25_1483 phases=1 Windings=3 Xhl=0.5 %loadLoss =0.5 %noloadLoss =0.2
 ~ wdg=1 bus=116480_1.1 conn= Wye kv=8.08 kva=10 tap=0.9
 ~ wdg=2 bus=BT_25_1483.1.0  conn= Wye kv=0.22 kva=10 tap=1
 ~ wdg=3 bus=BT_25_1483.0.2  conn= Wye kv=0.22 kva=10 tap=1

New Transformer.IT25_1484 phases=1 Windings=3 Xhl=0.5 %loadLoss =0.5 %noloadLoss =0.2
 ~ wdg=1 bus=30700_1.1 conn= Wye kv=8.08 kva=15 tap=0.943
 ~ wdg=2 bus=BT_25_1484.1.0  conn= Wye kv=0.22 kva=15 tap=1
 ~ wdg=3 bus=BT_25_1484.0.2  conn= Wye kv=0.22 kva=15 tap=1

New Transformer.IT25_1485 phases=1 Windings=3 Xhl=0.5 %loadLoss =0.5 %noloadLoss =0.2
 ~ wdg=1 bus=95153_1.3 conn= Wye kv=8.08 kva=10 tap=0.9
 ~ wdg=2 bus=BT_25_1485.1.0  conn= Wye kv=0.22 kva=10 tap=1
 ~ wdg=3 bus=BT_25_1485.0.2  conn= Wye kv=0.22 kva=10 tap=1

New Transformer.IT25_1486 phases=1 Windings=3 Xhl=0.5 %loadLoss =0.5 %noloadLoss =0.2
 ~ wdg=1 bus=30276_1.2 conn= Wye kv=8.08 kva=25 tap=0.857
 ~ wdg=2 bus=BT_25_1486.1.0  conn= Wye kv=0.22 kva=25 tap=1
 ~ wdg=3 bus=BT_25_1486.0.2  conn= Wye kv=0.22 kva=25 tap=1

New Transformer.IT25_1647 phases=1 Windings=3 Xhl=0.5 %loadLoss =0.5 %noloadLoss =0.2
 ~ wdg=1 bus=23443_1.3 conn= Wye kv=8.08 kva=10 tap=0.814
 ~ wdg=2 bus=BT_25_1647.1.0  conn= Wye kv=0.22 kva=10 tap=1
 ~ wdg=3 bus=BT_25_1647.0.2  conn= Wye kv=0.22 kva=10 tap=1

New Transformer.IT25_1783 phases=1 Windings=3 Xhl=0.5 %loadLoss =0.5 %noloadLoss =0.2
 ~ wdg=1 bus=31146_1.2 conn= Wye kv=8.08 kva=5 tap=0.814
 ~ wdg=2 bus=BT_25_1783.1.0  conn= Wye kv=0.22 kva=5 tap=1
 ~ wdg=3 bus=BT_25_1783.0.2  conn= Wye kv=0.22 kva=5 tap=1

New Transformer.IT25_1802 phases=1 Windings=3 Xhl=0.5 %loadLoss =0.5 %noloadLoss =0.2
 ~ wdg=1 bus=78205_1.1 conn= Wye kv=8.08 kva=5 tap=0.986
 ~ wdg=2 bus=BT_25_1802.1.0  conn= Wye kv=0.22 kva=5 tap=1
 ~ wdg=3 bus=BT_25_1802.0.2  conn= Wye kv=0.22 kva=5 tap=1

New Transformer.IT25_1807 phases=1 Windings=3 Xhl=0.5 %loadLoss =0.5 %noloadLoss =0.2
 ~ wdg=1 bus=69730_1.1 conn= Wye kv=8.08 kva=7.5 tap=0.9
 ~ wdg=2 bus=BT_25_1807.1.0  conn= Wye kv=0.22 kva=7.5 tap=1
 ~ wdg=3 bus=BT_25_1807.0.2  conn= Wye kv=0.22 kva=7.5 tap=1

New Transformer.IT25_1906 phases=1 Windings=3 Xhl=0.5 %loadLoss =0.5 %noloadLoss =0.2
 ~ wdg=1 bus=30751_1.3 conn= Wye kv=8.08 kva=10 tap=0.986
 ~ wdg=2 bus=BT_25_1906.1.0  conn= Wye kv=0.22 kva=10 tap=1
 ~ wdg=3 bus=BT_25_1906.0.2  conn= Wye kv=0.22 kva=10 tap=1

New Transformer.IT25_1912 phases=1 Windings=3 Xhl=0.5 %loadLoss =0.5 %noloadLoss =0.2
 ~ wdg=1 bus=30325_1.2 conn= Wye kv=8.08 kva=15 tap=0.943
 ~ wdg=2 bus=BT_25_1912.1.0  conn= Wye kv=0.22 kva=15 tap=1
 ~ wdg=3 bus=BT_25_1912.0.2  conn= Wye kv=0.22 kva=15 tap=1

New Transformer.IT25_2018 phases=1 Windings=3 Xhl=0.5 %loadLoss =0.5 %noloadLoss =0.2
 ~ wdg=1 bus=31564_1.3 conn= Wye kv=8.08 kva=15 tap=0.857
 ~ wdg=2 bus=BT_25_2018.1.0  conn= Wye kv=0.22 kva=15 tap=1
 ~ wdg=3 bus=BT_25_2018.0.2  conn= Wye kv=0.22 kva=15 tap=1

New Transformer.IT25_2019 phases=1 Windings=3 Xhl=0.5 %loadLoss =0.5 %noloadLoss =0.2
 ~ wdg=1 bus=114667_1.2 conn= Wye kv=8.08 kva=10 tap=0.9
 ~ wdg=2 bus=BT_25_2019.1.0  conn= Wye kv=0.22 kva=10 tap=1
 ~ wdg=3 bus=BT_25_2019.0.2  conn= Wye kv=0.22 kva=10 tap=1

New Transformer.IT25_2026 phases=3 Windings=2 Xhl=0.5 %loadLoss =1.46 %noloadLoss =0.37
 ~ wdg=1 bus=97130_1 conn= Delta kv=14 kva=75 tap=0.943
 ~ wdg=2 bus=BT_25_2026 conn= Wye kv=0.38 kva=75 tap=1

New Transformer.IT25_2069 phases=1 Windings=3 Xhl=0.5 %loadLoss =0.5 %noloadLoss =0.2
 ~ wdg=1 bus=35161_1.2 conn= Wye kv=8.08 kva=15 tap=0.9
 ~ wdg=2 bus=BT_25_2069.1.0  conn= Wye kv=0.22 kva=15 tap=1
 ~ wdg=3 bus=BT_25_2069.0.2  conn= Wye kv=0.22 kva=15 tap=1

New Transformer.IT25_2070 phases=1 Windings=3 Xhl=0.5 %loadLoss =0.5 %noloadLoss =0.2
 ~ wdg=1 bus=33363_1.3 conn= Wye kv=8.08 kva=10 tap=0.986
 ~ wdg=2 bus=BT_25_2070.1.0  conn= Wye kv=0.22 kva=10 tap=1
 ~ wdg=3 bus=BT_25_2070.0.2  conn= Wye kv=0.22 kva=10 tap=1

New Transformer.IT25_2117 phases=1 Windings=3 Xhl=0.5 %loadLoss =0.5 %noloadLoss =0.2
 ~ wdg=1 bus=33315_1.3 conn= Wye kv=8.08 kva=5 tap=0.9
 ~ wdg=2 bus=BT_25_2117.1.0  conn= Wye kv=0.22 kva=5 tap=1
 ~ wdg=3 bus=BT_25_2117.0.2  conn= Wye kv=0.22 kva=5 tap=1

New Transformer.IT25_2312 phases=1 Windings=3 Xhl=0.5 %loadLoss =0.5 %noloadLoss =0.2
 ~ wdg=1 bus=42946_1.2 conn= Wye kv=8.08 kva=25 tap=0.986
 ~ wdg=2 bus=BT_25_2312.1.0  conn= Wye kv=0.22 kva=25 tap=1
 ~ wdg=3 bus=BT_25_2312.0.2  conn= Wye kv=0.22 kva=25 tap=1

New Transformer.IT25_2313 phases=1 Windings=3 Xhl=0.5 %loadLoss =0.5 %noloadLoss =0.2
 ~ wdg=1 bus=34205_1.2 conn= Wye kv=8.08 kva=25 tap=0.857
 ~ wdg=2 bus=BT_25_2313.1.0  conn= Wye kv=0.22 kva=25 tap=1
 ~ wdg=3 bus=BT_25_2313.0.2  conn= Wye kv=0.22 kva=25 tap=1

New Transformer.IT25_2315 phases=3 Windings=2 Xhl=0.5 %loadLoss =1.81 %noloadLoss =0.47
 ~ wdg=1 bus=74806_1 conn= Delta kv=14 kva=30 tap=0.943
 ~ wdg=2 bus=BT_25_2315 conn= Wye kv=0.38 kva=30 tap=1

New Transformer.IT25_2336 phases=1 Windings=3 Xhl=0.5 %loadLoss =0.5 %noloadLoss =0.2
 ~ wdg=1 bus=33345_1.2 conn= Wye kv=8.08 kva=25 tap=0.9
 ~ wdg=2 bus=BT_25_2336.1.0  conn= Wye kv=0.22 kva=25 tap=1
 ~ wdg=3 bus=BT_25_2336.0.2  conn= Wye kv=0.22 kva=25 tap=1

New Transformer.IT25_2478 phases=1 Windings=3 Xhl=0.5 %loadLoss =0.5 %noloadLoss =0.2
 ~ wdg=1 bus=33388_1.2 conn= Wye kv=8.08 kva=15 tap=0.943
 ~ wdg=2 bus=BT_25_2478.1.0  conn= Wye kv=0.22 kva=15 tap=1
 ~ wdg=3 bus=BT_25_2478.0.2  conn= Wye kv=0.22 kva=15 tap=1

New Transformer.IT25_2497 phases=3 Windings=2 Xhl=0.5 %loadLoss =1.65 %noloadLoss =0.41
 ~ wdg=1 bus=23537_1 conn= Delta kv=14 kva=45 tap=0.943
 ~ wdg=2 bus=BT_25_2497 conn= Wye kv=0.38 kva=45 tap=1

New Transformer.IT25_2505 phases=3 Windings=2 Xhl=0.5 %loadLoss =1.81 %noloadLoss =0.47
 ~ wdg=1 bus=23513_1 conn= Delta kv=14 kva=30 tap=0.9
 ~ wdg=2 bus=BT_25_2505 conn= Wye kv=0.38 kva=30 tap=1

New Transformer.IT25_2541 phases=1 Windings=3 Xhl=0.5 %loadLoss =0.5 %noloadLoss =0.2
 ~ wdg=1 bus=22815_1.2 conn= Wye kv=8.08 kva=15 tap=0.857
 ~ wdg=2 bus=BT_25_2541.1.0  conn= Wye kv=0.22 kva=15 tap=1
 ~ wdg=3 bus=BT_25_2541.0.2  conn= Wye kv=0.22 kva=15 tap=1

New Transformer.IT25_2560 phases=1 Windings=3 Xhl=0.5 %loadLoss =0.5 %noloadLoss =0.2
 ~ wdg=1 bus=31498_1.1 conn= Wye kv=8.08 kva=10 tap=0.9
 ~ wdg=2 bus=BT_25_2560.1.0  conn= Wye kv=0.22 kva=10 tap=1
 ~ wdg=3 bus=BT_25_2560.0.2  conn= Wye kv=0.22 kva=10 tap=1

New Transformer.IT25_2567 phases=1 Windings=3 Xhl=0.5 %loadLoss =0.5 %noloadLoss =0.2
 ~ wdg=1 bus=34233_1.2 conn= Wye kv=8.08 kva=10 tap=0.9
 ~ wdg=2 bus=BT_25_2567.1.0  conn= Wye kv=0.22 kva=10 tap=1
 ~ wdg=3 bus=BT_25_2567.0.2  conn= Wye kv=0.22 kva=10 tap=1

New Transformer.IT25_2619 phases=3 Windings=2 Xhl=0.5 %loadLoss =1.81 %noloadLoss =0.47
 ~ wdg=1 bus=23523_1 conn= Delta kv=14 kva=30 tap=0.986
 ~ wdg=2 bus=BT_25_2619 conn= Wye kv=0.38 kva=30 tap=1

New Transformer.IT25_2640 phases=1 Windings=3 Xhl=0.5 %loadLoss =0.5 %noloadLoss =0.2
 ~ wdg=1 bus=80061_1.3 conn= Wye kv=8.08 kva=15 tap=0.9
 ~ wdg=2 bus=BT_25_2640.1.0  conn= Wye kv=0.22 kva=15 tap=1
 ~ wdg=3 bus=BT_25_2640.0.2  conn= Wye kv=0.22 kva=15 tap=1

New Transformer.IT25_2701 phases=1 Windings=3 Xhl=0.5 %loadLoss =0.5 %noloadLoss =0.2
 ~ wdg=1 bus=27700_1.2 conn= Wye kv=8.08 kva=7.5 tap=0.9
 ~ wdg=2 bus=BT_25_2701.1.0  conn= Wye kv=0.22 kva=7.5 tap=1
 ~ wdg=3 bus=BT_25_2701.0.2  conn= Wye kv=0.22 kva=7.5 tap=1

New Transformer.IT25_2706 phases=1 Windings=3 Xhl=0.5 %loadLoss =0.5 %noloadLoss =0.2
 ~ wdg=1 bus=27711_1.2 conn= Wye kv=8.08 kva=10 tap=0.857
 ~ wdg=2 bus=BT_25_2706.1.0  conn= Wye kv=0.22 kva=10 tap=1
 ~ wdg=3 bus=BT_25_2706.0.2  conn= Wye kv=0.22 kva=10 tap=1

New Transformer.IT25_2707 phases=1 Windings=3 Xhl=0.5 %loadLoss =0.5 %noloadLoss =0.2
 ~ wdg=1 bus=34175_1.2 conn= Wye kv=8.08 kva=10 tap=0.814
 ~ wdg=2 bus=BT_25_2707.1.0  conn= Wye kv=0.22 kva=10 tap=1
 ~ wdg=3 bus=BT_25_2707.0.2  conn= Wye kv=0.22 kva=10 tap=1

New Transformer.IT25_2724 phases=1 Windings=3 Xhl=0.5 %loadLoss =0.5 %noloadLoss =0.2
 ~ wdg=1 bus=41942_1.1 conn= Wye kv=8.08 kva=10 tap=0.943
 ~ wdg=2 bus=BT_25_2724.1.0  conn= Wye kv=0.22 kva=10 tap=1
 ~ wdg=3 bus=BT_25_2724.0.2  conn= Wye kv=0.22 kva=10 tap=1

New Transformer.IT25_2800 phases=1 Windings=3 Xhl=0.5 %loadLoss =0.5 %noloadLoss =0.2
 ~ wdg=1 bus=30993_1.1 conn= Wye kv=8.08 kva=15 tap=0.9
 ~ wdg=2 bus=BT_25_2800.1.0  conn= Wye kv=0.22 kva=15 tap=1
 ~ wdg=3 bus=BT_25_2800.0.2  conn= Wye kv=0.22 kva=15 tap=1

New Transformer.IT25_2889 phases=3 Windings=2 Xhl=0.5 %loadLoss =1.65 %noloadLoss =0.41
 ~ wdg=1 bus=41966_1 conn= Delta kv=14 kva=45 tap=0.857
 ~ wdg=2 bus=BT_25_2889 conn= Wye kv=0.38 kva=45 tap=1

New Transformer.IT25_2890 phases=1 Windings=3 Xhl=0.5 %loadLoss =0.5 %noloadLoss =0.2
 ~ wdg=1 bus=41962_1.3 conn= Wye kv=8.08 kva=7.5 tap=0.986
 ~ wdg=2 bus=BT_25_2890.1.0  conn= Wye kv=0.22 kva=7.5 tap=1
 ~ wdg=3 bus=BT_25_2890.0.2  conn= Wye kv=0.22 kva=7.5 tap=1

New Transformer.IT25_3184 phases=1 Windings=3 Xhl=0.5 %loadLoss =0.5 %noloadLoss =0.2
 ~ wdg=1 bus=35176_1.1 conn= Wye kv=8.08 kva=10 tap=0.814
 ~ wdg=2 bus=BT_25_3184.1.0  conn= Wye kv=0.22 kva=10 tap=1
 ~ wdg=3 bus=BT_25_3184.0.2  conn= Wye kv=0.22 kva=10 tap=1

New Transformer.IT25_3199 phases=3 Windings=2 Xhl=0.5 %loadLoss =1.81 %noloadLoss =0.47
 ~ wdg=1 bus=35195_1 conn= Delta kv=14 kva=30 tap=1
 ~ wdg=2 bus=BT_25_3199 conn= Wye kv=0.38 kva=30 tap=1

New Transformer.IT25_3287 phases=3 Windings=2 Xhl=0.5 %loadLoss =1.65 %noloadLoss =0.41
 ~ wdg=1 bus=25319_1 conn= Delta kv=14 kva=45 tap=0.943
 ~ wdg=2 bus=BT_25_3287 conn= Wye kv=0.38 kva=45 tap=1

New Transformer.IT25_3450 phases=1 Windings=3 Xhl=0.5 %loadLoss =0.5 %noloadLoss =0.2
 ~ wdg=1 bus=59383_1.1 conn= Wye kv=8.08 kva=10 tap=0.943
 ~ wdg=2 bus=BT_25_3450.1.0  conn= Wye kv=0.22 kva=10 tap=1
 ~ wdg=3 bus=BT_25_3450.0.2  conn= Wye kv=0.22 kva=10 tap=1

New Transformer.IT25_3485 phases=1 Windings=3 Xhl=0.5 %loadLoss =0.5 %noloadLoss =0.2
 ~ wdg=1 bus=49278_1.3 conn= Wye kv=8.08 kva=10 tap=0.857
 ~ wdg=2 bus=BT_25_3485.1.0  conn= Wye kv=0.22 kva=10 tap=1
 ~ wdg=3 bus=BT_25_3485.0.2  conn= Wye kv=0.22 kva=10 tap=1

New Transformer.IT25_3720 phases=1 Windings=3 Xhl=0.5 %loadLoss =0.5 %noloadLoss =0.2
 ~ wdg=1 bus=75657_1.2 conn= Wye kv=8.08 kva=10 tap=0.986
 ~ wdg=2 bus=BT_25_3720.1.0  conn= Wye kv=0.22 kva=10 tap=1
 ~ wdg=3 bus=BT_25_3720.0.2  conn= Wye kv=0.22 kva=10 tap=1

New Transformer.IT25_3721 phases=1 Windings=3 Xhl=0.5 %loadLoss =0.5 %noloadLoss =0.2
 ~ wdg=1 bus=62089_1.3 conn= Wye kv=8.08 kva=25 tap=0.9
 ~ wdg=2 bus=BT_25_3721.1.0  conn= Wye kv=0.22 kva=25 tap=1
 ~ wdg=3 bus=BT_25_3721.0.2  conn= Wye kv=0.22 kva=25 tap=1

New Transformer.IT25_3894 phases=1 Windings=3 Xhl=0.5 %loadLoss =0.5 %noloadLoss =0.2
 ~ wdg=1 bus=83039_1.1 conn= Wye kv=8.08 kva=10 tap=0.986
 ~ wdg=2 bus=BT_25_3894.1.0  conn= Wye kv=0.22 kva=10 tap=1
 ~ wdg=3 bus=BT_25_3894.0.2  conn= Wye kv=0.22 kva=10 tap=1

New Transformer.IT25_3896 phases=1 Windings=3 Xhl=0.5 %loadLoss =0.5 %noloadLoss =0.2
 ~ wdg=1 bus=83037_1.1 conn= Wye kv=8.08 kva=10 tap=0.986
 ~ wdg=2 bus=BT_25_3896.1.0  conn= Wye kv=0.22 kva=10 tap=1
 ~ wdg=3 bus=BT_25_3896.0.2  conn= Wye kv=0.22 kva=10 tap=1

New Transformer.IT25_3910 phases=1 Windings=3 Xhl=0.5 %loadLoss =0.5 %noloadLoss =0.2
 ~ wdg=1 bus=83035_1.1 conn= Wye kv=8.08 kva=10 tap=0.943
 ~ wdg=2 bus=BT_25_3910.1.0  conn= Wye kv=0.22 kva=10 tap=1
 ~ wdg=3 bus=BT_25_3910.0.2  conn= Wye kv=0.22 kva=10 tap=1

New Transformer.IT25_4002 phases=1 Windings=3 Xhl=0.5 %loadLoss =0.5 %noloadLoss =0.2
 ~ wdg=1 bus=99142_1.2 conn= Wye kv=8.08 kva=5 tap=0.943
 ~ wdg=2 bus=BT_25_4002.1.0  conn= Wye kv=0.22 kva=5 tap=1
 ~ wdg=3 bus=BT_25_4002.0.2  conn= Wye kv=0.22 kva=5 tap=1

New Transformer.IT25_4004 phases=1 Windings=3 Xhl=0.5 %loadLoss =0.5 %noloadLoss =0.2
 ~ wdg=1 bus=101878_1.2 conn= Wye kv=8.08 kva=10 tap=0.857
 ~ wdg=2 bus=BT_25_4004.1.0  conn= Wye kv=0.22 kva=10 tap=1
 ~ wdg=3 bus=BT_25_4004.0.2  conn= Wye kv=0.22 kva=10 tap=1

New Transformer.IT25_4096 phases=1 Windings=3 Xhl=0.5 %loadLoss =0.5 %noloadLoss =0.2
 ~ wdg=1 bus=102991_1.1 conn= Wye kv=8.08 kva=10 tap=0.9
 ~ wdg=2 bus=BT_25_4096.1.0  conn= Wye kv=0.22 kva=10 tap=1
 ~ wdg=3 bus=BT_25_4096.0.2  conn= Wye kv=0.22 kva=10 tap=1

New Transformer.IT25_4104 phases=1 Windings=3 Xhl=0.5 %loadLoss =0.5 %noloadLoss =0.2
 ~ wdg=1 bus=31500_1.1 conn= Wye kv=8.08 kva=5 tap=0.9
 ~ wdg=2 bus=BT_25_4104.1.0  conn= Wye kv=0.22 kva=5 tap=1
 ~ wdg=3 bus=BT_25_4104.0.2  conn= Wye kv=0.22 kva=5 tap=1

New Transformer.IT25_4139 phases=1 Windings=3 Xhl=0.5 %loadLoss =0.5 %noloadLoss =0.2
 ~ wdg=1 bus=30331_1.2 conn= Wye kv=8.08 kva=10 tap=0.9
 ~ wdg=2 bus=BT_25_4139.1.0  conn= Wye kv=0.22 kva=10 tap=1
 ~ wdg=3 bus=BT_25_4139.0.2  conn= Wye kv=0.22 kva=10 tap=1

New Transformer.IT25_4143 phases=1 Windings=3 Xhl=0.5 %loadLoss =0.5 %noloadLoss =0.2
 ~ wdg=1 bus=102507_1.2 conn= Wye kv=8.08 kva=5 tap=0.857
 ~ wdg=2 bus=BT_25_4143.1.0  conn= Wye kv=0.22 kva=5 tap=1
 ~ wdg=3 bus=BT_25_4143.0.2  conn= Wye kv=0.22 kva=5 tap=1

New Transformer.IT25_4251 phases=1 Windings=3 Xhl=0.5 %loadLoss =0.5 %noloadLoss =0.2
 ~ wdg=1 bus=102104_1.2 conn= Wye kv=8.08 kva=7.5 tap=0.986
 ~ wdg=2 bus=BT_25_4251.1.0  conn= Wye kv=0.22 kva=7.5 tap=1
 ~ wdg=3 bus=BT_25_4251.0.2  conn= Wye kv=0.22 kva=7.5 tap=1

New Transformer.IT25_4252 phases=1 Windings=3 Xhl=0.5 %loadLoss =0.5 %noloadLoss =0.2
 ~ wdg=1 bus=102647_1.1 conn= Wye kv=8.08 kva=5 tap=0.986
 ~ wdg=2 bus=BT_25_4252.1.0  conn= Wye kv=0.22 kva=5 tap=1
 ~ wdg=3 bus=BT_25_4252.0.2  conn= Wye kv=0.22 kva=5 tap=1

New Transformer.IT25_4380 phases=1 Windings=3 Xhl=0.5 %loadLoss =0.5 %noloadLoss =0.2
 ~ wdg=1 bus=30318_1.3 conn= Wye kv=8.08 kva=25 tap=0.9
 ~ wdg=2 bus=BT_25_4380.1.0  conn= Wye kv=0.22 kva=25 tap=1
 ~ wdg=3 bus=BT_25_4380.0.2  conn= Wye kv=0.22 kva=25 tap=1

New Transformer.IT25_4381 phases=1 Windings=3 Xhl=0.5 %loadLoss =0.5 %noloadLoss =0.2
 ~ wdg=1 bus=94143_1.2 conn= Wye kv=8.08 kva=5 tap=0.986
 ~ wdg=2 bus=BT_25_4381.1.0  conn= Wye kv=0.22 kva=5 tap=1
 ~ wdg=3 bus=BT_25_4381.0.2  conn= Wye kv=0.22 kva=5 tap=1

New Transformer.IT25_4386 phases=1 Windings=3 Xhl=0.5 %loadLoss =0.5 %noloadLoss =0.2
 ~ wdg=1 bus=30233_1.2 conn= Wye kv=8.08 kva=5 tap=0.9
 ~ wdg=2 bus=BT_25_4386.1.0  conn= Wye kv=0.22 kva=5 tap=1
 ~ wdg=3 bus=BT_25_4386.0.2  conn= Wye kv=0.22 kva=5 tap=1

New Transformer.IT25_4595 phases=1 Windings=3 Xhl=0.5 %loadLoss =0.5 %noloadLoss =0.2
 ~ wdg=1 bus=48393_1.1 conn= Wye kv=8.08 kva=15 tap=0.9
 ~ wdg=2 bus=BT_25_4595.1.0  conn= Wye kv=0.22 kva=15 tap=1
 ~ wdg=3 bus=BT_25_4595.0.2  conn= Wye kv=0.22 kva=15 tap=1

New Transformer.IT25_4668 phases=1 Windings=3 Xhl=0.5 %loadLoss =0.5 %noloadLoss =0.2
 ~ wdg=1 bus=103159_1.2 conn= Wye kv=8.08 kva=5 tap=0.9
 ~ wdg=2 bus=BT_25_4668.1.0  conn= Wye kv=0.22 kva=5 tap=1
 ~ wdg=3 bus=BT_25_4668.0.2  conn= Wye kv=0.22 kva=5 tap=1

New Transformer.IT25_4774 phases=1 Windings=3 Xhl=0.5 %loadLoss =0.5 %noloadLoss =0.2
 ~ wdg=1 bus=31527_1.1 conn= Wye kv=8.08 kva=10 tap=0.986
 ~ wdg=2 bus=BT_25_4774.1.0  conn= Wye kv=0.22 kva=10 tap=1
 ~ wdg=3 bus=BT_25_4774.0.2  conn= Wye kv=0.22 kva=10 tap=1

New Transformer.IT25_4824 phases=1 Windings=3 Xhl=0.5 %loadLoss =0.5 %noloadLoss =0.2
 ~ wdg=1 bus=104122_1.2 conn= Wye kv=8.08 kva=10 tap=0.9
 ~ wdg=2 bus=BT_25_4824.1.0  conn= Wye kv=0.22 kva=10 tap=1
 ~ wdg=3 bus=BT_25_4824.0.2  conn= Wye kv=0.22 kva=10 tap=1

New Transformer.IT25_4826 phases=1 Windings=3 Xhl=0.5 %loadLoss =0.5 %noloadLoss =0.2
 ~ wdg=1 bus=110177_1.1 conn= Wye kv=8.08 kva=15 tap=0.9
 ~ wdg=2 bus=BT_25_4826.1.0  conn= Wye kv=0.22 kva=15 tap=1
 ~ wdg=3 bus=BT_25_4826.0.2  conn= Wye kv=0.22 kva=15 tap=1

New Transformer.IT25_4852 phases=1 Windings=3 Xhl=0.5 %loadLoss =0.5 %noloadLoss =0.2
 ~ wdg=1 bus=106435_1.3 conn= Wye kv=8.08 kva=5 tap=0.9
 ~ wdg=2 bus=BT_25_4852.1.0  conn= Wye kv=0.22 kva=5 tap=1
 ~ wdg=3 bus=BT_25_4852.0.2  conn= Wye kv=0.22 kva=5 tap=1

New Transformer.IT25_4911 phases=1 Windings=3 Xhl=0.5 %loadLoss =0.5 %noloadLoss =0.2
 ~ wdg=1 bus=89242_1.3 conn= Wye kv=8.08 kva=7.5 tap=0.986
 ~ wdg=2 bus=BT_25_4911.1.0  conn= Wye kv=0.22 kva=7.5 tap=1
 ~ wdg=3 bus=BT_25_4911.0.2  conn= Wye kv=0.22 kva=7.5 tap=1

New Transformer.IT25_4936 phases=3 Windings=2 Xhl=0.5 %loadLoss =2.14 %noloadLoss =0.54
 ~ wdg=1 bus=109035_1 conn= Delta kv=14 kva=15 tap=0.986
 ~ wdg=2 bus=BT_25_4936 conn= Wye kv=0.38 kva=15 tap=1

New Transformer.IT25_4954 phases=1 Windings=3 Xhl=0.5 %loadLoss =0.5 %noloadLoss =0.2
 ~ wdg=1 bus=33336_1.2 conn= Wye kv=8.08 kva=10 tap=0.9
 ~ wdg=2 bus=BT_25_4954.1.0  conn= Wye kv=0.22 kva=10 tap=1
 ~ wdg=3 bus=BT_25_4954.0.2  conn= Wye kv=0.22 kva=10 tap=1

New Transformer.IT25_4970 phases=1 Windings=3 Xhl=0.5 %loadLoss =0.5 %noloadLoss =0.2
 ~ wdg=1 bus=31555_1.3 conn= Wye kv=8.08 kva=10 tap=0.9
 ~ wdg=2 bus=BT_25_4970.1.0  conn= Wye kv=0.22 kva=10 tap=1
 ~ wdg=3 bus=BT_25_4970.0.2  conn= Wye kv=0.22 kva=10 tap=1

New Transformer.IT25_5020 phases=1 Windings=3 Xhl=0.5 %loadLoss =0.5 %noloadLoss =0.2
 ~ wdg=1 bus=30252_1.2 conn= Wye kv=8.08 kva=10 tap=0.943
 ~ wdg=2 bus=BT_25_5020.1.0  conn= Wye kv=0.22 kva=10 tap=1
 ~ wdg=3 bus=BT_25_5020.0.2  conn= Wye kv=0.22 kva=10 tap=1

New Transformer.IT25_5059 phases=1 Windings=3 Xhl=0.5 %loadLoss =0.5 %noloadLoss =0.2
 ~ wdg=1 bus=33350_1.2 conn= Wye kv=8.08 kva=15 tap=0.9
 ~ wdg=2 bus=BT_25_5059.1.0  conn= Wye kv=0.22 kva=15 tap=1
 ~ wdg=3 bus=BT_25_5059.0.2  conn= Wye kv=0.22 kva=15 tap=1

New Transformer.IT25_5118 phases=1 Windings=3 Xhl=0.5 %loadLoss =0.5 %noloadLoss =0.2
 ~ wdg=1 bus=33348_1.2 conn= Wye kv=8.08 kva=10 tap=0.943
 ~ wdg=2 bus=BT_25_5118.1.0  conn= Wye kv=0.22 kva=10 tap=1
 ~ wdg=3 bus=BT_25_5118.0.2  conn= Wye kv=0.22 kva=10 tap=1

New Transformer.IT25_5254 phases=1 Windings=3 Xhl=0.5 %loadLoss =0.5 %noloadLoss =0.2
 ~ wdg=1 bus=30336_1.1 conn= Wye kv=8.08 kva=25 tap=0.9
 ~ wdg=2 bus=BT_25_5254.1.0  conn= Wye kv=0.22 kva=25 tap=1
 ~ wdg=3 bus=BT_25_5254.0.2  conn= Wye kv=0.22 kva=25 tap=1

New Transformer.IT25_5297 phases=3 Windings=2 Xhl=0.5 %loadLoss =1.46 %noloadLoss =0.37
 ~ wdg=1 bus=25343_1 conn= Delta kv=14 kva=75 tap=0.9
 ~ wdg=2 bus=BT_25_5297 conn= Wye kv=0.38 kva=75 tap=1

New Transformer.IT25_5533 phases=1 Windings=3 Xhl=0.5 %loadLoss =0.5 %noloadLoss =0.2
 ~ wdg=1 bus=145768_1.2 conn= Wye kv=8.08 kva=15 tap=0.9
 ~ wdg=2 bus=BT_25_5533.1.0  conn= Wye kv=0.22 kva=15 tap=1
 ~ wdg=3 bus=BT_25_5533.0.2  conn= Wye kv=0.22 kva=15 tap=1

New Transformer.IT25_5534 phases=1 Windings=3 Xhl=0.5 %loadLoss =0.5 %noloadLoss =0.2
 ~ wdg=1 bus=34217_1.2 conn= Wye kv=8.08 kva=25 tap=0.9
 ~ wdg=2 bus=BT_25_5534.1.0  conn= Wye kv=0.22 kva=25 tap=1
 ~ wdg=3 bus=BT_25_5534.0.2  conn= Wye kv=0.22 kva=25 tap=1

New Transformer.IT25_5699 phases=1 Windings=3 Xhl=0.5 %loadLoss =0.5 %noloadLoss =0.2
 ~ wdg=1 bus=116393_1.3 conn= Wye kv=8.08 kva=10 tap=0.857
 ~ wdg=2 bus=BT_25_5699.1.0  conn= Wye kv=0.22 kva=10 tap=1
 ~ wdg=3 bus=BT_25_5699.0.2  conn= Wye kv=0.22 kva=10 tap=1

New Transformer.IT25_5719 phases=1 Windings=3 Xhl=0.5 %loadLoss =0.5 %noloadLoss =0.2
 ~ wdg=1 bus=35623_1.1 conn= Wye kv=8.08 kva=10 tap=0.9
 ~ wdg=2 bus=BT_25_5719.1.0  conn= Wye kv=0.22 kva=10 tap=1
 ~ wdg=3 bus=BT_25_5719.0.2  conn= Wye kv=0.22 kva=10 tap=1

New Transformer.IT25_5720 phases=1 Windings=3 Xhl=0.5 %loadLoss =0.5 %noloadLoss =0.2
 ~ wdg=1 bus=35635_1.2 conn= Wye kv=8.08 kva=15 tap=0.986
 ~ wdg=2 bus=BT_25_5720.1.0  conn= Wye kv=0.22 kva=15 tap=1
 ~ wdg=3 bus=BT_25_5720.0.2  conn= Wye kv=0.22 kva=15 tap=1

New Transformer.IT25_5795 phases=1 Windings=3 Xhl=0.5 %loadLoss =0.5 %noloadLoss =0.2
 ~ wdg=1 bus=105430_1.1 conn= Wye kv=8.08 kva=10 tap=0.9
 ~ wdg=2 bus=BT_25_5795.1.0  conn= Wye kv=0.22 kva=10 tap=1
 ~ wdg=3 bus=BT_25_5795.0.2  conn= Wye kv=0.22 kva=10 tap=1

New Transformer.IT25_5831 phases=1 Windings=3 Xhl=0.5 %loadLoss =0.5 %noloadLoss =0.2
 ~ wdg=1 bus=115751_1.1 conn= Wye kv=8.08 kva=10 tap=0.9
 ~ wdg=2 bus=BT_25_5831.1.0  conn= Wye kv=0.22 kva=10 tap=1
 ~ wdg=3 bus=BT_25_5831.0.2  conn= Wye kv=0.22 kva=10 tap=1

New Transformer.IT25_5833 phases=1 Windings=3 Xhl=0.5 %loadLoss =0.5 %noloadLoss =0.2
 ~ wdg=1 bus=31596_1.2 conn= Wye kv=8.08 kva=10 tap=0.9
 ~ wdg=2 bus=BT_25_5833.1.0  conn= Wye kv=0.22 kva=10 tap=1
 ~ wdg=3 bus=BT_25_5833.0.2  conn= Wye kv=0.22 kva=10 tap=1

New Transformer.IT25_5834 phases=1 Windings=3 Xhl=0.5 %loadLoss =0.5 %noloadLoss =0.2
 ~ wdg=1 bus=35178_1.1 conn= Wye kv=8.08 kva=10 tap=0.986
 ~ wdg=2 bus=BT_25_5834.1.0  conn= Wye kv=0.22 kva=10 tap=1
 ~ wdg=3 bus=BT_25_5834.0.2  conn= Wye kv=0.22 kva=10 tap=1

New Transformer.IT25_5938 phases=1 Windings=3 Xhl=0.5 %loadLoss =0.5 %noloadLoss =0.2
 ~ wdg=1 bus=30687_1.1 conn= Wye kv=8.08 kva=10 tap=0.9
 ~ wdg=2 bus=BT_25_5938.1.0  conn= Wye kv=0.22 kva=10 tap=1
 ~ wdg=3 bus=BT_25_5938.0.2  conn= Wye kv=0.22 kva=10 tap=1

New Transformer.IT25_6137 phases=1 Windings=3 Xhl=0.5 %loadLoss =0.5 %noloadLoss =0.2
 ~ wdg=1 bus=94172_1.3 conn= Wye kv=8.08 kva=10 tap=0.9
 ~ wdg=2 bus=BT_25_6137.1.0  conn= Wye kv=0.22 kva=10 tap=1
 ~ wdg=3 bus=BT_25_6137.0.2  conn= Wye kv=0.22 kva=10 tap=1

New Transformer.IT25_6172 phases=1 Windings=3 Xhl=0.5 %loadLoss =0.5 %noloadLoss =0.2
 ~ wdg=1 bus=48404_1.2 conn= Wye kv=8.08 kva=10 tap=0.9
 ~ wdg=2 bus=BT_25_6172.1.0  conn= Wye kv=0.22 kva=10 tap=1
 ~ wdg=3 bus=BT_25_6172.0.2  conn= Wye kv=0.22 kva=10 tap=1

New Transformer.IT25_6589 phases=1 Windings=3 Xhl=0.5 %loadLoss =0.5 %noloadLoss =0.2
 ~ wdg=1 bus=131922_1.1 conn= Wye kv=8.08 kva=5 tap=0.9
 ~ wdg=2 bus=BT_25_6589.1.0  conn= Wye kv=0.22 kva=5 tap=1
 ~ wdg=3 bus=BT_25_6589.0.2  conn= Wye kv=0.22 kva=5 tap=1

New Transformer.IT25_6595 phases=1 Windings=3 Xhl=0.5 %loadLoss =0.5 %noloadLoss =0.2
 ~ wdg=1 bus=30726_1.1 conn= Wye kv=8.08 kva=5 tap=0.9
 ~ wdg=2 bus=BT_25_6595.1.0  conn= Wye kv=0.22 kva=5 tap=1
 ~ wdg=3 bus=BT_25_6595.0.2  conn= Wye kv=0.22 kva=5 tap=1

New Transformer.IT25_6596 phases=3 Windings=2 Xhl=0.5 %loadLoss =1.81 %noloadLoss =0.47
 ~ wdg=1 bus=35182_1 conn= Delta kv=14 kva=30 tap=0.9
 ~ wdg=2 bus=BT_25_6596 conn= Wye kv=0.38 kva=30 tap=1

New Transformer.IT25_6687 phases=1 Windings=3 Xhl=0.5 %loadLoss =0.5 %noloadLoss =0.2
 ~ wdg=1 bus=54101_1.2 conn= Wye kv=8.08 kva=10 tap=0.943
 ~ wdg=2 bus=BT_25_6687.1.0  conn= Wye kv=0.22 kva=10 tap=1
 ~ wdg=3 bus=BT_25_6687.0.2  conn= Wye kv=0.22 kva=10 tap=1

New Transformer.IT25_6805 phases=3 Windings=2 Xhl=0.5 %loadLoss =1.46 %noloadLoss =0.37
 ~ wdg=1 bus=130978_1 conn= Delta kv=14 kva=75 tap=0.986
 ~ wdg=2 bus=BT_25_6805 conn= Wye kv=0.38 kva=75 tap=1

New Transformer.IT25_6963 phases=1 Windings=3 Xhl=0.5 %loadLoss =0.5 %noloadLoss =0.2
 ~ wdg=1 bus=30758_1.1 conn= Wye kv=8.08 kva=15 tap=0.9
 ~ wdg=2 bus=BT_25_6963.1.0  conn= Wye kv=0.22 kva=15 tap=1
 ~ wdg=3 bus=BT_25_6963.0.2  conn= Wye kv=0.22 kva=15 tap=1

New Transformer.IT25_7042 phases=1 Windings=3 Xhl=0.5 %loadLoss =0.5 %noloadLoss =0.2
 ~ wdg=1 bus=128025_1.3 conn= Wye kv=8.08 kva=10 tap=0.986
 ~ wdg=2 bus=BT_25_7042.1.0  conn= Wye kv=0.22 kva=10 tap=1
 ~ wdg=3 bus=BT_25_7042.0.2  conn= Wye kv=0.22 kva=10 tap=1

New Transformer.IT25_7186 phases=1 Windings=3 Xhl=0.5 %loadLoss =0.5 %noloadLoss =0.2
 ~ wdg=1 bus=88826_1.1 conn= Wye kv=8.08 kva=10 tap=0.9
 ~ wdg=2 bus=BT_25_7186.1.0  conn= Wye kv=0.22 kva=10 tap=1
 ~ wdg=3 bus=BT_25_7186.0.2  conn= Wye kv=0.22 kva=10 tap=1

New Transformer.IT25_7197 phases=3 Windings=2 Xhl=0.5 %loadLoss =1.81 %noloadLoss =0.47
 ~ wdg=1 bus=134711_1 conn= Delta kv=14 kva=30 tap=0.943
 ~ wdg=2 bus=BT_25_7197 conn= Wye kv=0.38 kva=30 tap=1

New Transformer.IT25_7198 phases=3 Windings=2 Xhl=0.5 %loadLoss =1.81 %noloadLoss =0.47
 ~ wdg=1 bus=23518_1 conn= Delta kv=14 kva=30 tap=0.943
 ~ wdg=2 bus=BT_25_7198 conn= Wye kv=0.38 kva=30 tap=1

New Transformer.IT25_7199 phases=1 Windings=3 Xhl=0.5 %loadLoss =0.5 %noloadLoss =0.2
 ~ wdg=1 bus=123823_1.2 conn= Wye kv=8.08 kva=10 tap=0.986
 ~ wdg=2 bus=BT_25_7199.1.0  conn= Wye kv=0.22 kva=10 tap=1
 ~ wdg=3 bus=BT_25_7199.0.2  conn= Wye kv=0.22 kva=10 tap=1

New Transformer.IT25_7213 phases=1 Windings=3 Xhl=0.5 %loadLoss =0.5 %noloadLoss =0.2
 ~ wdg=1 bus=28910_1.1 conn= Wye kv=8.08 kva=15 tap=0.9
 ~ wdg=2 bus=BT_25_7213.1.0  conn= Wye kv=0.22 kva=15 tap=1
 ~ wdg=3 bus=BT_25_7213.0.2  conn= Wye kv=0.22 kva=15 tap=1

New Transformer.IT25_7304 phases=1 Windings=3 Xhl=0.5 %loadLoss =0.5 %noloadLoss =0.2
 ~ wdg=1 bus=33399_1.2 conn= Wye kv=8.08 kva=10 tap=0.9
 ~ wdg=2 bus=BT_25_7304.1.0  conn= Wye kv=0.22 kva=10 tap=1
 ~ wdg=3 bus=BT_25_7304.0.2  conn= Wye kv=0.22 kva=10 tap=1

New Transformer.IT25_7397 phases=1 Windings=3 Xhl=0.5 %loadLoss =0.5 %noloadLoss =0.2
 ~ wdg=1 bus=138066_1.3 conn= Wye kv=8.08 kva=10 tap=0.9
 ~ wdg=2 bus=BT_25_7397.1.0  conn= Wye kv=0.22 kva=10 tap=1
 ~ wdg=3 bus=BT_25_7397.0.2  conn= Wye kv=0.22 kva=10 tap=1

New Transformer.IT25_7423 phases=1 Windings=3 Xhl=0.5 %loadLoss =0.5 %noloadLoss =0.2
 ~ wdg=1 bus=119747_1.2 conn= Wye kv=8.08 kva=15 tap=0.9
 ~ wdg=2 bus=BT_25_7423.1.0  conn= Wye kv=0.22 kva=15 tap=1
 ~ wdg=3 bus=BT_25_7423.0.2  conn= Wye kv=0.22 kva=15 tap=1

New Transformer.IT25_7459 phases=1 Windings=3 Xhl=0.5 %loadLoss =0.5 %noloadLoss =0.2
 ~ wdg=1 bus=23467_1.2 conn= Wye kv=8.08 kva=15 tap=0.857
 ~ wdg=2 bus=BT_25_7459.1.0  conn= Wye kv=0.22 kva=15 tap=1
 ~ wdg=3 bus=BT_25_7459.0.2  conn= Wye kv=0.22 kva=15 tap=1

New Transformer.IT25_7506 phases=1 Windings=3 Xhl=0.5 %loadLoss =0.5 %noloadLoss =0.2
 ~ wdg=1 bus=137208_1.1 conn= Wye kv=8.08 kva=5 tap=0.943
 ~ wdg=2 bus=BT_25_7506.1.0  conn= Wye kv=0.22 kva=5 tap=1
 ~ wdg=3 bus=BT_25_7506.0.2  conn= Wye kv=0.22 kva=5 tap=1

New Transformer.IT25_7581 phases=1 Windings=3 Xhl=0.5 %loadLoss =0.5 %noloadLoss =0.2
 ~ wdg=1 bus=91071_1.1 conn= Wye kv=8.08 kva=15 tap=0.943
 ~ wdg=2 bus=BT_25_7581.1.0  conn= Wye kv=0.22 kva=15 tap=1
 ~ wdg=3 bus=BT_25_7581.0.2  conn= Wye kv=0.22 kva=15 tap=1

New Transformer.IT25_7698 phases=1 Windings=3 Xhl=0.5 %loadLoss =0.5 %noloadLoss =0.2
 ~ wdg=1 bus=138545_1.1 conn= Wye kv=8.08 kva=10 tap=0.9
 ~ wdg=2 bus=BT_25_7698.1.0  conn= Wye kv=0.22 kva=10 tap=1
 ~ wdg=3 bus=BT_25_7698.0.2  conn= Wye kv=0.22 kva=10 tap=1

New Transformer.IT25_7835 phases=3 Windings=2 Xhl=0.5 %loadLoss =1.81 %noloadLoss =0.47
 ~ wdg=1 bus=80173_1 conn= Delta kv=14 kva=30 tap=0.986
 ~ wdg=2 bus=BT_25_7835 conn= Wye kv=0.38 kva=30 tap=1

New Transformer.IT25_7836 phases=1 Windings=3 Xhl=0.5 %loadLoss =0.5 %noloadLoss =0.2
 ~ wdg=1 bus=140102_1.3 conn= Wye kv=8.08 kva=15 tap=0.943
 ~ wdg=2 bus=BT_25_7836.1.0  conn= Wye kv=0.22 kva=15 tap=1
 ~ wdg=3 bus=BT_25_7836.0.2  conn= Wye kv=0.22 kva=15 tap=1

New Transformer.IT25_7964 phases=1 Windings=3 Xhl=0.5 %loadLoss =0.5 %noloadLoss =0.2
 ~ wdg=1 bus=141285_1.3 conn= Wye kv=8.08 kva=15 tap=0.9
 ~ wdg=2 bus=BT_25_7964.1.0  conn= Wye kv=0.22 kva=15 tap=1
 ~ wdg=3 bus=BT_25_7964.0.2  conn= Wye kv=0.22 kva=15 tap=1

New Transformer.IT25_813 phases=3 Windings=2 Xhl=0.5 %loadLoss =1.81 %noloadLoss =0.47
 ~ wdg=1 bus=30760_1 conn= Delta kv=14 kva=30 tap=0.9
 ~ wdg=2 bus=BT_25_813 conn= Wye kv=0.38 kva=30 tap=1

New Transformer.IT25_814 phases=3 Windings=2 Xhl=0.5 %loadLoss =1.32 %noloadLoss =0.32
 ~ wdg=1 bus=25314_1 conn= Delta kv=14 kva=112.5 tap=0.943
 ~ wdg=2 bus=BT_25_814 conn= Wye kv=0.38 kva=112.5 tap=1

New Transformer.IT25_815 phases=3 Windings=2 Xhl=0.5 %loadLoss =1.32 %noloadLoss =0.32
 ~ wdg=1 bus=25347_1 conn= Delta kv=14 kva=112.5 tap=0.943
 ~ wdg=2 bus=BT_25_815 conn= Wye kv=0.38 kva=112.5 tap=1

New Transformer.IT25_816 phases=3 Windings=2 Xhl=0.5 %loadLoss =1.65 %noloadLoss =0.41
 ~ wdg=1 bus=23501_1 conn= Delta kv=14 kva=45 tap=0.9
 ~ wdg=2 bus=BT_25_816 conn= Wye kv=0.38 kva=45 tap=1

New Transformer.IT25_817 phases=3 Windings=2 Xhl=0.5 %loadLoss =1.81 %noloadLoss =0.47
 ~ wdg=1 bus=108742_1 conn= Delta kv=14 kva=30 tap=0.9
 ~ wdg=2 bus=BT_25_817 conn= Wye kv=0.38 kva=30 tap=1

New Transformer.IT25_818 phases=3 Windings=2 Xhl=0.5 %loadLoss =1.65 %noloadLoss =0.41
 ~ wdg=1 bus=48869_1 conn= Delta kv=14 kva=45 tap=0.9
 ~ wdg=2 bus=BT_25_818 conn= Wye kv=0.38 kva=45 tap=1

New Transformer.IT25_819 phases=3 Windings=2 Xhl=0.5 %loadLoss =2.14 %noloadLoss =0.54
 ~ wdg=1 bus=35204_1 conn= Delta kv=14 kva=15 tap=0.9
 ~ wdg=2 bus=BT_25_819 conn= Wye kv=0.38 kva=15 tap=1

New Transformer.IT25_820 phases=1 Windings=3 Xhl=0.5 %loadLoss =0.5 %noloadLoss =0.2
 ~ wdg=1 bus=30712_1.1 conn= Wye kv=8.08 kva=25 tap=0.9
 ~ wdg=2 bus=BT_25_820.1.0  conn= Wye kv=0.22 kva=25 tap=1
 ~ wdg=3 bus=BT_25_820.0.2  conn= Wye kv=0.22 kva=25 tap=1

New Transformer.IT25_821 phases=1 Windings=3 Xhl=0.5 %loadLoss =0.5 %noloadLoss =0.2
 ~ wdg=1 bus=30800_1.1 conn= Wye kv=8.08 kva=7.5 tap=0.9
 ~ wdg=2 bus=BT_25_821.1.0  conn= Wye kv=0.22 kva=7.5 tap=1
 ~ wdg=3 bus=BT_25_821.0.2  conn= Wye kv=0.22 kva=7.5 tap=1

New Transformer.IT25_822 phases=1 Windings=3 Xhl=0.5 %loadLoss =0.5 %noloadLoss =0.2
 ~ wdg=1 bus=30723_1.3 conn= Wye kv=8.08 kva=25 tap=0.9
 ~ wdg=2 bus=BT_25_822.1.0  conn= Wye kv=0.22 kva=25 tap=1
 ~ wdg=3 bus=BT_25_822.0.2  conn= Wye kv=0.22 kva=25 tap=1

New Transformer.IT25_823 phases=1 Windings=3 Xhl=0.5 %loadLoss =0.5 %noloadLoss =0.2
 ~ wdg=1 bus=30313_1.3 conn= Wye kv=8.08 kva=10 tap=0.9
 ~ wdg=2 bus=BT_25_823.1.0  conn= Wye kv=0.22 kva=10 tap=1
 ~ wdg=3 bus=BT_25_823.0.2  conn= Wye kv=0.22 kva=10 tap=1

New Transformer.IT25_824 phases=1 Windings=3 Xhl=0.5 %loadLoss =0.5 %noloadLoss =0.2
 ~ wdg=1 bus=28899_1.1 conn= Wye kv=8.08 kva=10 tap=0.9
 ~ wdg=2 bus=BT_25_824.1.0  conn= Wye kv=0.22 kva=10 tap=1
 ~ wdg=3 bus=BT_25_824.0.2  conn= Wye kv=0.22 kva=10 tap=1

New Transformer.IT25_825 phases=1 Windings=3 Xhl=0.5 %loadLoss =0.5 %noloadLoss =0.2
 ~ wdg=1 bus=28879_1.1 conn= Wye kv=8.08 kva=15 tap=0.9
 ~ wdg=2 bus=BT_25_825.1.0  conn= Wye kv=0.22 kva=15 tap=1
 ~ wdg=3 bus=BT_25_825.0.2  conn= Wye kv=0.22 kva=15 tap=1

New Transformer.IT25_828 phases=1 Windings=3 Xhl=0.5 %loadLoss =0.5 %noloadLoss =0.2
 ~ wdg=1 bus=80178_1.1 conn= Wye kv=8.08 kva=10 tap=0.9
 ~ wdg=2 bus=BT_25_828.1.0  conn= Wye kv=0.22 kva=10 tap=1
 ~ wdg=3 bus=BT_25_828.0.2  conn= Wye kv=0.22 kva=10 tap=1

New Transformer.IT25_829 phases=1 Windings=3 Xhl=0.5 %loadLoss =0.5 %noloadLoss =0.2
 ~ wdg=1 bus=31538_1.3 conn= Wye kv=8.08 kva=25 tap=0.9
 ~ wdg=2 bus=BT_25_829.1.0  conn= Wye kv=0.22 kva=25 tap=1
 ~ wdg=3 bus=BT_25_829.0.2  conn= Wye kv=0.22 kva=25 tap=1

New Transformer.IT25_830 phases=1 Windings=3 Xhl=0.5 %loadLoss =0.5 %noloadLoss =0.2
 ~ wdg=1 bus=31588_1.1 conn= Wye kv=8.08 kva=15 tap=0.9
 ~ wdg=2 bus=BT_25_830.1.0  conn= Wye kv=0.22 kva=15 tap=1
 ~ wdg=3 bus=BT_25_830.0.2  conn= Wye kv=0.22 kva=15 tap=1

New Transformer.IT25_831 phases=1 Windings=3 Xhl=0.5 %loadLoss =0.5 %noloadLoss =0.2
 ~ wdg=1 bus=31546_1.3 conn= Wye kv=8.08 kva=10 tap=0.9
 ~ wdg=2 bus=BT_25_831.1.0  conn= Wye kv=0.22 kva=10 tap=1
 ~ wdg=3 bus=BT_25_831.0.2  conn= Wye kv=0.22 kva=10 tap=1

New Transformer.IT25_833 phases=1 Windings=3 Xhl=0.5 %loadLoss =0.5 %noloadLoss =0.2
 ~ wdg=1 bus=30237_1.2 conn= Wye kv=8.08 kva=7.5 tap=0.943
 ~ wdg=2 bus=BT_25_833.1.0  conn= Wye kv=0.22 kva=7.5 tap=1
 ~ wdg=3 bus=BT_25_833.0.2  conn= Wye kv=0.22 kva=7.5 tap=1

New Transformer.IT25_90335 phases=1 Windings=3 Xhl=0.5 %loadLoss =0.5 %noloadLoss =0.2
 ~ wdg=1 bus=37553_1.3 conn= Wye kv=8.08 kva=37.5 tap=0.943
 ~ wdg=2 bus=BT_25_90335.1.0  conn= Wye kv=0.22 kva=37.5 tap=1
 ~ wdg=3 bus=BT_25_90335.0.2  conn= Wye kv=0.22 kva=37.5 tap=1

New Transformer.IT25_90696 phases=3 Windings=2 Xhl=0.5 %loadLoss =1.32 %noloadLoss =0.32
 ~ wdg=1 bus=141770_1 conn= Delta kv=14 kva=112.5 tap=0.986
 ~ wdg=2 bus=BT_25_90696 conn= Wye kv=0.38 kva=112.5 tap=1

New Transformer.IT3_10227 phases=1 Windings=3 Xhl=0.5 %loadLoss =0.5 %noloadLoss =0.2
 ~ wdg=1 bus=144183_1.3 conn= Wye kv=8.08 kva=10 tap=0.986
 ~ wdg=2 bus=BT_3_10227.1.0  conn= Wye kv=0.22 kva=10 tap=1
 ~ wdg=3 bus=BT_3_10227.0.2  conn= Wye kv=0.22 kva=10 tap=1

New Transformer.IT3_1879 phases=1 Windings=3 Xhl=0.5 %loadLoss =0.5 %noloadLoss =0.2
 ~ wdg=1 bus=111488_1.3 conn= Wye kv=8.08 kva=25 tap=0.986
 ~ wdg=2 bus=BT_3_1879.1.0  conn= Wye kv=0.22 kva=25 tap=1
 ~ wdg=3 bus=BT_3_1879.0.2  conn= Wye kv=0.22 kva=25 tap=1

New Transformer.IT3_2610 phases=1 Windings=3 Xhl=0.5 %loadLoss =0.5 %noloadLoss =0.2
 ~ wdg=1 bus=33327_1.3 conn= Wye kv=8.08 kva=7.5 tap=0.814
 ~ wdg=2 bus=BT_3_2610.1.0  conn= Wye kv=0.22 kva=7.5 tap=1
 ~ wdg=3 bus=BT_3_2610.0.2  conn= Wye kv=0.22 kva=7.5 tap=1

New Transformer.IT3_2620 phases=1 Windings=3 Xhl=0.5 %loadLoss =0.5 %noloadLoss =0.2
 ~ wdg=1 bus=31574_1.3 conn= Wye kv=8.08 kva=5 tap=0.814
 ~ wdg=2 bus=BT_3_2620.1.0  conn= Wye kv=0.22 kva=5 tap=1
 ~ wdg=3 bus=BT_3_2620.0.2  conn= Wye kv=0.22 kva=5 tap=1

New Transformer.IT3_3279 phases=1 Windings=3 Xhl=0.5 %loadLoss =0.5 %noloadLoss =0.2
 ~ wdg=1 bus=36214_1.2 conn= Wye kv=8.08 kva=7.5 tap=0.857
 ~ wdg=2 bus=BT_3_3279.1.0  conn= Wye kv=0.22 kva=7.5 tap=1
 ~ wdg=3 bus=BT_3_3279.0.2  conn= Wye kv=0.22 kva=7.5 tap=1

New Transformer.IT3_3392 phases=1 Windings=3 Xhl=0.5 %loadLoss =0.5 %noloadLoss =0.2
 ~ wdg=1 bus=30262_1.2 conn= Wye kv=8.08 kva=25 tap=0.9
 ~ wdg=2 bus=BT_3_3392.1.0  conn= Wye kv=0.22 kva=25 tap=1
 ~ wdg=3 bus=BT_3_3392.0.2  conn= Wye kv=0.22 kva=25 tap=1

New Transformer.IT3_3755 phases=1 Windings=3 Xhl=0.5 %loadLoss =0.5 %noloadLoss =0.2
 ~ wdg=1 bus=78874_1.2 conn= Wye kv=8.08 kva=10 tap=0.986
 ~ wdg=2 bus=BT_3_3755.1.0  conn= Wye kv=0.22 kva=10 tap=1
 ~ wdg=3 bus=BT_3_3755.0.2  conn= Wye kv=0.22 kva=10 tap=1

New Transformer.IT3_3893 phases=1 Windings=3 Xhl=0.5 %loadLoss =0.5 %noloadLoss =0.2
 ~ wdg=1 bus=74047_1.3 conn= Wye kv=8.08 kva=10 tap=0.986
 ~ wdg=2 bus=BT_3_3893.1.0  conn= Wye kv=0.22 kva=10 tap=1
 ~ wdg=3 bus=BT_3_3893.0.2  conn= Wye kv=0.22 kva=10 tap=1

New Transformer.IT3_3895 phases=1 Windings=3 Xhl=0.5 %loadLoss =0.5 %noloadLoss =0.2
 ~ wdg=1 bus=31572_1.3 conn= Wye kv=8.08 kva=10 tap=0.986
 ~ wdg=2 bus=BT_3_3895.1.0  conn= Wye kv=0.22 kva=10 tap=1
 ~ wdg=3 bus=BT_3_3895.0.2  conn= Wye kv=0.22 kva=10 tap=1

New Transformer.IT3_4003 phases=1 Windings=3 Xhl=0.5 %loadLoss =0.5 %noloadLoss =0.2
 ~ wdg=1 bus=99149_1.3 conn= Wye kv=8.08 kva=25 tap=0.9
 ~ wdg=2 bus=BT_3_4003.1.0  conn= Wye kv=0.22 kva=25 tap=1
 ~ wdg=3 bus=BT_3_4003.0.2  conn= Wye kv=0.22 kva=25 tap=1

New Transformer.IT3_4005 phases=1 Windings=3 Xhl=0.5 %loadLoss =0.5 %noloadLoss =0.2
 ~ wdg=1 bus=99135_1.3 conn= Wye kv=8.08 kva=5 tap=0.857
 ~ wdg=2 bus=BT_3_4005.1.0  conn= Wye kv=0.22 kva=5 tap=1
 ~ wdg=3 bus=BT_3_4005.0.2  conn= Wye kv=0.22 kva=5 tap=1

New Transformer.IT3_4188 phases=1 Windings=3 Xhl=0.5 %loadLoss =0.5 %noloadLoss =0.2
 ~ wdg=1 bus=101405_1.3 conn= Wye kv=8.08 kva=7.5 tap=0.986
 ~ wdg=2 bus=BT_3_4188.1.0  conn= Wye kv=0.22 kva=7.5 tap=1
 ~ wdg=3 bus=BT_3_4188.0.2  conn= Wye kv=0.22 kva=7.5 tap=1

New Transformer.IT3_4456 phases=1 Windings=3 Xhl=0.5 %loadLoss =0.5 %noloadLoss =0.2
 ~ wdg=1 bus=96143_1.2 conn= Wye kv=8.08 kva=25 tap=0.9
 ~ wdg=2 bus=BT_3_4456.1.0  conn= Wye kv=0.22 kva=25 tap=1
 ~ wdg=3 bus=BT_3_4456.0.2  conn= Wye kv=0.22 kva=25 tap=1

New Transformer.IT3_4593 phases=3 Windings=2 Xhl=0.5 %loadLoss =1.65 %noloadLoss =0.41
 ~ wdg=1 bus=31708_1 conn= Delta kv=14 kva=45 tap=0.943
 ~ wdg=2 bus=BT_3_4593 conn= Wye kv=0.38 kva=45 tap=1

New Transformer.IT3_5177 phases=1 Windings=3 Xhl=0.5 %loadLoss =0.5 %noloadLoss =0.2
 ~ wdg=1 bus=96266_1.3 conn= Wye kv=8.08 kva=7.5 tap=0.9
 ~ wdg=2 bus=BT_3_5177.1.0  conn= Wye kv=0.22 kva=7.5 tap=1
 ~ wdg=3 bus=BT_3_5177.0.2  conn= Wye kv=0.22 kva=7.5 tap=1

New Transformer.IT3_5336 phases=1 Windings=3 Xhl=0.5 %loadLoss =0.5 %noloadLoss =0.2
 ~ wdg=1 bus=30274_1.2 conn= Wye kv=8.08 kva=25 tap=0.9
 ~ wdg=2 bus=BT_3_5336.1.0  conn= Wye kv=0.22 kva=25 tap=1
 ~ wdg=3 bus=BT_3_5336.0.2  conn= Wye kv=0.22 kva=25 tap=1

New Transformer.IT3_6936 phases=1 Windings=3 Xhl=0.5 %loadLoss =0.5 %noloadLoss =0.2
 ~ wdg=1 bus=74045_1.3 conn= Wye kv=8.08 kva=5 tap=0.986
 ~ wdg=2 bus=BT_3_6936.1.0  conn= Wye kv=0.22 kva=5 tap=1
 ~ wdg=3 bus=BT_3_6936.0.2  conn= Wye kv=0.22 kva=5 tap=1

New Transformer.IT3_7962 phases=1 Windings=3 Xhl=0.5 %loadLoss =0.5 %noloadLoss =0.2
 ~ wdg=1 bus=141978_1.3 conn= Wye kv=8.08 kva=15 tap=0.9
 ~ wdg=2 bus=BT_3_7962.1.0  conn= Wye kv=0.22 kva=15 tap=1
 ~ wdg=3 bus=BT_3_7962.0.2  conn= Wye kv=0.22 kva=15 tap=1

New Transformer.IT3_7963 phases=1 Windings=3 Xhl=0.5 %loadLoss =0.5 %noloadLoss =0.2
 ~ wdg=1 bus=141963_1.3 conn= Wye kv=8.08 kva=15 tap=0.986
 ~ wdg=2 bus=BT_3_7963.1.0  conn= Wye kv=0.22 kva=15 tap=1
 ~ wdg=3 bus=BT_3_7963.0.2  conn= Wye kv=0.22 kva=15 tap=1

New Transformer.IT3_809 phases=1 Windings=3 Xhl=0.5 %loadLoss =0.5 %noloadLoss =0.2
 ~ wdg=1 bus=32071_1.3 conn= Wye kv=8.08 kva=25 tap=0.814
 ~ wdg=2 bus=BT_3_809.1.0  conn= Wye kv=0.22 kva=25 tap=1
 ~ wdg=3 bus=BT_3_809.0.2  conn= Wye kv=0.22 kva=25 tap=1

New Transformer.IT3_810 phases=3 Windings=2 Xhl=0.5 %loadLoss =1.81 %noloadLoss =0.47
 ~ wdg=1 bus=52144_1 conn= Delta kv=14 kva=30 tap=0.943
 ~ wdg=2 bus=BT_3_810 conn= Wye kv=0.38 kva=30 tap=1

New Transformer.IT3_811 phases=1 Windings=3 Xhl=0.5 %loadLoss =0.5 %noloadLoss =0.2
 ~ wdg=1 bus=29424_1.3 conn= Wye kv=8.08 kva=25 tap=0.857
 ~ wdg=2 bus=BT_3_811.1.0  conn= Wye kv=0.22 kva=25 tap=1
 ~ wdg=3 bus=BT_3_811.0.2  conn= Wye kv=0.22 kva=25 tap=1

New Transformer.IT3_832 phases=3 Windings=2 Xhl=0.5 %loadLoss =2.14 %noloadLoss =0.54
 ~ wdg=1 bus=30224_1 conn= Delta kv=14 kva=15 tap=0.986
 ~ wdg=2 bus=BT_3_832 conn= Wye kv=0.38 kva=15 tap=1

New Transformer.IT3_834 phases=1 Windings=3 Xhl=0.5 %loadLoss =0.5 %noloadLoss =0.2
 ~ wdg=1 bus=30269_1.2 conn= Wye kv=8.08 kva=25 tap=0.943
 ~ wdg=2 bus=BT_3_834.1.0  conn= Wye kv=0.22 kva=25 tap=1
 ~ wdg=3 bus=BT_3_834.0.2  conn= Wye kv=0.22 kva=25 tap=1

New Transformer.IT3_835 phases=1 Windings=3 Xhl=0.5 %loadLoss =0.5 %noloadLoss =0.2
 ~ wdg=1 bus=141776_1.2 conn= Wye kv=8.08 kva=10 tap=0.985
 ~ wdg=2 bus=BT_3_835.1.0  conn= Wye kv=0.22 kva=10 tap=1
 ~ wdg=3 bus=BT_3_835.0.2  conn= Wye kv=0.22 kva=10 tap=1

New Transformer.IT40_1398 phases=1 Windings=3 Xhl=0.5 %loadLoss =0.5 %noloadLoss =0.2
 ~ wdg=1 bus=35151_1.1 conn= Wye kv=8.08 kva=15 tap=0.9
 ~ wdg=2 bus=BT_40_1398.1.0  conn= Wye kv=0.22 kva=15 tap=1
 ~ wdg=3 bus=BT_40_1398.0.2  conn= Wye kv=0.22 kva=15 tap=1

New Transformer.IT40_1516 phases=1 Windings=3 Xhl=0.5 %loadLoss =0.5 %noloadLoss =0.2
 ~ wdg=1 bus=89462_1.1 conn= Wye kv=8.08 kva=25 tap=0.943
 ~ wdg=2 bus=BT_40_1516.1.0  conn= Wye kv=0.22 kva=25 tap=1
 ~ wdg=3 bus=BT_40_1516.0.2  conn= Wye kv=0.22 kva=25 tap=1

New Transformer.IT40_1612 phases=1 Windings=3 Xhl=0.5 %loadLoss =0.5 %noloadLoss =0.2
 ~ wdg=1 bus=35124_1.3 conn= Wye kv=8.08 kva=25 tap=0.986
 ~ wdg=2 bus=BT_40_1612.1.0  conn= Wye kv=0.22 kva=25 tap=1
 ~ wdg=3 bus=BT_40_1612.0.2  conn= Wye kv=0.22 kva=25 tap=1

New Transformer.IT40_2549 phases=1 Windings=3 Xhl=0.5 %loadLoss =0.5 %noloadLoss =0.2
 ~ wdg=1 bus=22716_1.2 conn= Wye kv=8.08 kva=25 tap=0.9
 ~ wdg=2 bus=BT_40_2549.1.0  conn= Wye kv=0.22 kva=25 tap=1
 ~ wdg=3 bus=BT_40_2549.0.2  conn= Wye kv=0.22 kva=25 tap=1

New Transformer.IT40_3687 phases=1 Windings=3 Xhl=0.5 %loadLoss =0.5 %noloadLoss =0.2
 ~ wdg=1 bus=22735_1.1 conn= Wye kv=8.08 kva=15 tap=0.9
 ~ wdg=2 bus=BT_40_3687.1.0  conn= Wye kv=0.22 kva=15 tap=1
 ~ wdg=3 bus=BT_40_3687.0.2  conn= Wye kv=0.22 kva=15 tap=1

New Transformer.IT40_4904 phases=1 Windings=3 Xhl=0.5 %loadLoss =0.5 %noloadLoss =0.2
 ~ wdg=1 bus=22789_1.3 conn= Wye kv=8.08 kva=25 tap=0.943
 ~ wdg=2 bus=BT_40_4904.1.0  conn= Wye kv=0.22 kva=25 tap=1
 ~ wdg=3 bus=BT_40_4904.0.2  conn= Wye kv=0.22 kva=25 tap=1

New Transformer.IT40_5128 phases=1 Windings=3 Xhl=0.5 %loadLoss =0.5 %noloadLoss =0.2
 ~ wdg=1 bus=22740_1.1 conn= Wye kv=8.08 kva=10 tap=0.9
 ~ wdg=2 bus=BT_40_5128.1.0  conn= Wye kv=0.22 kva=10 tap=1
 ~ wdg=3 bus=BT_40_5128.0.2  conn= Wye kv=0.22 kva=10 tap=1

New Transformer.IT40_7288 phases=1 Windings=3 Xhl=0.5 %loadLoss =0.5 %noloadLoss =0.2
 ~ wdg=1 bus=89466_1.2 conn= Wye kv=8.08 kva=25 tap=0.986
 ~ wdg=2 bus=BT_40_7288.1.0  conn= Wye kv=0.22 kva=25 tap=1
 ~ wdg=3 bus=BT_40_7288.0.2  conn= Wye kv=0.22 kva=25 tap=1

New Transformer.IT6_10066 phases=1 Windings=3 Xhl=0.5 %loadLoss =0.5 %noloadLoss =0.2
 ~ wdg=1 bus=141283_1.2 conn= Wye kv=8.08 kva=25 tap=0.943
 ~ wdg=2 bus=BT_6_10066.1.0  conn= Wye kv=0.22 kva=25 tap=1
 ~ wdg=3 bus=BT_6_10066.0.2  conn= Wye kv=0.22 kva=25 tap=1

New Transformer.IT6_10148 phases=1 Windings=3 Xhl=0.5 %loadLoss =0.5 %noloadLoss =0.2
 ~ wdg=1 bus=144275_1.1 conn= Wye kv=8.08 kva=10 tap=0.986
 ~ wdg=2 bus=BT_6_10148.1.0  conn= Wye kv=0.22 kva=10 tap=1
 ~ wdg=3 bus=BT_6_10148.0.2  conn= Wye kv=0.22 kva=10 tap=1

New Transformer.IT6_10176 phases=1 Windings=3 Xhl=0.5 %loadLoss =0.5 %noloadLoss =0.2
 ~ wdg=1 bus=143079_1.3 conn= Wye kv=8.08 kva=10 tap=0.986
 ~ wdg=2 bus=BT_6_10176.1.0  conn= Wye kv=0.22 kva=10 tap=1
 ~ wdg=3 bus=BT_6_10176.0.2  conn= Wye kv=0.22 kva=10 tap=1

New Transformer.IT6_10178 phases=1 Windings=3 Xhl=0.5 %loadLoss =0.5 %noloadLoss =0.2
 ~ wdg=1 bus=143242_1.1 conn= Wye kv=8.08 kva=7.5 tap=0.943
 ~ wdg=2 bus=BT_6_10178.1.0  conn= Wye kv=0.22 kva=7.5 tap=1
 ~ wdg=3 bus=BT_6_10178.0.2  conn= Wye kv=0.22 kva=7.5 tap=1

New Transformer.IT6_10228 phases=1 Windings=3 Xhl=0.5 %loadLoss =0.5 %noloadLoss =0.2
 ~ wdg=1 bus=100579_1.3 conn= Wye kv=8.08 kva=7.5 tap=0.943
 ~ wdg=2 bus=BT_6_10228.1.0  conn= Wye kv=0.22 kva=7.5 tap=1
 ~ wdg=3 bus=BT_6_10228.0.2  conn= Wye kv=0.22 kva=7.5 tap=1

New Transformer.IT6_10265 phases=1 Windings=3 Xhl=0.5 %loadLoss =0.5 %noloadLoss =0.2
 ~ wdg=1 bus=27874_1.2 conn= Wye kv=8.08 kva=25 tap=0.943
 ~ wdg=2 bus=BT_6_10265.1.0  conn= Wye kv=0.22 kva=25 tap=1
 ~ wdg=3 bus=BT_6_10265.0.2  conn= Wye kv=0.22 kva=25 tap=1

New Transformer.IT6_10330 phases=1 Windings=3 Xhl=0.5 %loadLoss =0.5 %noloadLoss =0.2
 ~ wdg=1 bus=144318_1.3 conn= Wye kv=8.08 kva=15 tap=0.943
 ~ wdg=2 bus=BT_6_10330.1.0  conn= Wye kv=0.22 kva=15 tap=1
 ~ wdg=3 bus=BT_6_10330.0.2  conn= Wye kv=0.22 kva=15 tap=1

New Transformer.IT6_10342 phases=1 Windings=3 Xhl=0.5 %loadLoss =0.5 %noloadLoss =0.2
 ~ wdg=1 bus=34905_1.2 conn= Wye kv=8.08 kva=15 tap=0.943
 ~ wdg=2 bus=BT_6_10342.1.0  conn= Wye kv=0.22 kva=15 tap=1
 ~ wdg=3 bus=BT_6_10342.0.2  conn= Wye kv=0.22 kva=15 tap=1

New Transformer.IT6_10352 phases=1 Windings=3 Xhl=0.5 %loadLoss =0.5 %noloadLoss =0.2
 ~ wdg=1 bus=131722_1.3 conn= Wye kv=8.08 kva=20 tap=0.943
 ~ wdg=2 bus=BT_6_10352.1.0  conn= Wye kv=0.22 kva=20 tap=1
 ~ wdg=3 bus=BT_6_10352.0.2  conn= Wye kv=0.22 kva=20 tap=1

New Transformer.IT6_10358 phases=1 Windings=3 Xhl=0.5 %loadLoss =0.5 %noloadLoss =0.2
 ~ wdg=1 bus=144241_1.3 conn= Wye kv=8.08 kva=10 tap=0.943
 ~ wdg=2 bus=BT_6_10358.1.0  conn= Wye kv=0.22 kva=10 tap=1
 ~ wdg=3 bus=BT_6_10358.0.2  conn= Wye kv=0.22 kva=10 tap=1

New Transformer.IT6_10386 phases=3 Windings=2 Xhl=0.5 %loadLoss =1.46 %noloadLoss =0.37
 ~ wdg=1 bus=145096_1 conn= Delta kv=14 kva=75 tap=0.986
 ~ wdg=2 bus=BT_6_10386 conn= Wye kv=0.38 kva=75 tap=1

New Transformer.IT6_10387 phases=3 Windings=2 Xhl=0.5 %loadLoss =1.65 %noloadLoss =0.41
 ~ wdg=1 bus=137728_1 conn= Delta kv=14 kva=45 tap=0.986
 ~ wdg=2 bus=BT_6_10387 conn= Wye kv=0.38 kva=45 tap=1

New Transformer.IT6_10458 phases=1 Windings=3 Xhl=0.5 %loadLoss =0.5 %noloadLoss =0.2
 ~ wdg=1 bus=145101_1.1 conn= Wye kv=8.08 kva=10 tap=0.986
 ~ wdg=2 bus=BT_6_10458.1.0  conn= Wye kv=0.22 kva=10 tap=1
 ~ wdg=3 bus=BT_6_10458.0.2  conn= Wye kv=0.22 kva=10 tap=1

New Transformer.IT6_10521 phases=3 Windings=2 Xhl=0.5 %loadLoss =1.81 %noloadLoss =0.47
 ~ wdg=1 bus=145771_1 conn= Delta kv=14 kva=30 tap=0.986
 ~ wdg=2 bus=BT_6_10521 conn= Wye kv=0.38 kva=30 tap=1

New Transformer.IT6_10543 phases=1 Windings=3 Xhl=0.5 %loadLoss =0.5 %noloadLoss =0.2
 ~ wdg=1 bus=145815_1.2 conn= Wye kv=8.08 kva=10 tap=0.986
 ~ wdg=2 bus=BT_6_10543.1.0  conn= Wye kv=0.22 kva=10 tap=1
 ~ wdg=3 bus=BT_6_10543.0.2  conn= Wye kv=0.22 kva=10 tap=1

New Transformer.IT6_1109 phases=3 Windings=2 Xhl=0.5 %loadLoss =1.65 %noloadLoss =0.41
 ~ wdg=1 bus=26423_1 conn= Delta kv=14 kva=45 tap=0.9
 ~ wdg=2 bus=BT_6_1109 conn= Wye kv=0.38 kva=45 tap=1

New Transformer.IT6_1111 phases=3 Windings=2 Xhl=0.5 %loadLoss =1.32 %noloadLoss =0.32
 ~ wdg=1 bus=144908_1 conn= Delta kv=14 kva=112.5 tap=0.986
 ~ wdg=2 bus=BT_6_1111 conn= Wye kv=0.38 kva=112.5 tap=1

New Transformer.IT6_1362 phases=1 Windings=3 Xhl=0.5 %loadLoss =0.5 %noloadLoss =0.2
 ~ wdg=1 bus=37691_1.2 conn= Wye kv=8.08 kva=25 tap=0.9
 ~ wdg=2 bus=BT_6_1362.1.0  conn= Wye kv=0.22 kva=25 tap=1
 ~ wdg=3 bus=BT_6_1362.0.2  conn= Wye kv=0.22 kva=25 tap=1

New Transformer.IT6_1364 phases=3 Windings=2 Xhl=0.5 %loadLoss =1.65 %noloadLoss =0.41
 ~ wdg=1 bus=27164_1 conn= Delta kv=14 kva=45 tap=0.986
 ~ wdg=2 bus=BT_6_1364 conn= Wye kv=0.38 kva=45 tap=1

New Transformer.IT6_1365 phases=3 Windings=2 Xhl=0.5 %loadLoss =1.81 %noloadLoss =0.47
 ~ wdg=1 bus=30570_1 conn= Delta kv=14 kva=30 tap=0.943
 ~ wdg=2 bus=BT_6_1365 conn= Wye kv=0.38 kva=30 tap=1

New Transformer.IT6_1366 phases=1 Windings=3 Xhl=0.5 %loadLoss =0.5 %noloadLoss =0.2
 ~ wdg=1 bus=127044_1.3 conn= Wye kv=8.08 kva=25 tap=0.9
 ~ wdg=2 bus=BT_6_1366.1.0  conn= Wye kv=0.22 kva=25 tap=1
 ~ wdg=3 bus=BT_6_1366.0.2  conn= Wye kv=0.22 kva=25 tap=1

New Transformer.IT6_1367 phases=1 Windings=3 Xhl=0.5 %loadLoss =0.5 %noloadLoss =0.2
 ~ wdg=1 bus=70646_1.3 conn= Wye kv=8.08 kva=25 tap=0.814
 ~ wdg=2 bus=BT_6_1367.1.0  conn= Wye kv=0.22 kva=25 tap=1
 ~ wdg=3 bus=BT_6_1367.0.2  conn= Wye kv=0.22 kva=25 tap=1

New Transformer.IT6_1368 phases=1 Windings=3 Xhl=0.5 %loadLoss =0.5 %noloadLoss =0.2
 ~ wdg=1 bus=21317_1.2 conn= Wye kv=8.08 kva=10 tap=0.771
 ~ wdg=2 bus=BT_6_1368.1.0  conn= Wye kv=0.22 kva=10 tap=1
 ~ wdg=3 bus=BT_6_1368.0.2  conn= Wye kv=0.22 kva=10 tap=1

New Transformer.IT6_1369 phases=1 Windings=3 Xhl=0.5 %loadLoss =0.5 %noloadLoss =0.2
 ~ wdg=1 bus=26724_1.3 conn= Wye kv=8.08 kva=25 tap=0.9
 ~ wdg=2 bus=BT_6_1369.1.0  conn= Wye kv=0.22 kva=25 tap=1
 ~ wdg=3 bus=BT_6_1369.0.2  conn= Wye kv=0.22 kva=25 tap=1

New Transformer.IT6_1370 phases=1 Windings=3 Xhl=0.5 %loadLoss =0.5 %noloadLoss =0.2
 ~ wdg=1 bus=26770_1.1 conn= Wye kv=8.08 kva=25 tap=0.986
 ~ wdg=2 bus=BT_6_1370.1.0  conn= Wye kv=0.22 kva=25 tap=1
 ~ wdg=3 bus=BT_6_1370.0.2  conn= Wye kv=0.22 kva=25 tap=1

New Transformer.IT6_1387 phases=1 Windings=3 Xhl=0.5 %loadLoss =0.5 %noloadLoss =0.2
 ~ wdg=1 bus=24902_1.1 conn= Wye kv=8.08 kva=25 tap=0.9
 ~ wdg=2 bus=BT_6_1387.1.0  conn= Wye kv=0.22 kva=25 tap=1
 ~ wdg=3 bus=BT_6_1387.0.2  conn= Wye kv=0.22 kva=25 tap=1

New Transformer.IT6_1391 phases=1 Windings=3 Xhl=0.5 %loadLoss =0.5 %noloadLoss =0.2
 ~ wdg=1 bus=24166_1.3 conn= Wye kv=8.08 kva=7.5 tap=0.9
 ~ wdg=2 bus=BT_6_1391.1.0  conn= Wye kv=0.22 kva=7.5 tap=1
 ~ wdg=3 bus=BT_6_1391.0.2  conn= Wye kv=0.22 kva=7.5 tap=1

New Transformer.IT6_1397 phases=1 Windings=3 Xhl=0.5 %loadLoss =0.5 %noloadLoss =0.2
 ~ wdg=1 bus=78315_1.3 conn= Wye kv=8.08 kva=15 tap=0.9
 ~ wdg=2 bus=BT_6_1397.1.0  conn= Wye kv=0.22 kva=15 tap=1
 ~ wdg=3 bus=BT_6_1397.0.2  conn= Wye kv=0.22 kva=15 tap=1

New Transformer.IT6_1399 phases=1 Windings=3 Xhl=0.5 %loadLoss =0.5 %noloadLoss =0.2
 ~ wdg=1 bus=22720_1.1 conn= Wye kv=8.08 kva=25 tap=0.986
 ~ wdg=2 bus=BT_6_1399.1.0  conn= Wye kv=0.22 kva=25 tap=1
 ~ wdg=3 bus=BT_6_1399.0.2  conn= Wye kv=0.22 kva=25 tap=1

New Transformer.IT6_1400 phases=1 Windings=3 Xhl=0.5 %loadLoss =0.5 %noloadLoss =0.2
 ~ wdg=1 bus=22314_1.1 conn= Wye kv=8.08 kva=15 tap=0.9
 ~ wdg=2 bus=BT_6_1400.1.0  conn= Wye kv=0.22 kva=15 tap=1
 ~ wdg=3 bus=BT_6_1400.0.2  conn= Wye kv=0.22 kva=15 tap=1

New Transformer.IT6_1401 phases=1 Windings=3 Xhl=0.5 %loadLoss =0.5 %noloadLoss =0.2
 ~ wdg=1 bus=22223_1.1 conn= Wye kv=8.08 kva=25 tap=0.943
 ~ wdg=2 bus=BT_6_1401.1.0  conn= Wye kv=0.22 kva=25 tap=1
 ~ wdg=3 bus=BT_6_1401.0.2  conn= Wye kv=0.22 kva=25 tap=1

New Transformer.IT6_1402 phases=1 Windings=3 Xhl=0.5 %loadLoss =0.5 %noloadLoss =0.2
 ~ wdg=1 bus=91045_1.3 conn= Wye kv=8.08 kva=25 tap=0.943
 ~ wdg=2 bus=BT_6_1402.1.0  conn= Wye kv=0.22 kva=25 tap=1
 ~ wdg=3 bus=BT_6_1402.0.2  conn= Wye kv=0.22 kva=25 tap=1

New Transformer.IT6_1447 phases=1 Windings=3 Xhl=0.5 %loadLoss =0.5 %noloadLoss =0.2
 ~ wdg=1 bus=27936_1.2 conn= Wye kv=8.08 kva=10 tap=0.943
 ~ wdg=2 bus=BT_6_1447.1.0  conn= Wye kv=0.22 kva=10 tap=1
 ~ wdg=3 bus=BT_6_1447.0.2  conn= Wye kv=0.22 kva=10 tap=1

New Transformer.IT6_1487 phases=1 Windings=3 Xhl=0.5 %loadLoss =0.5 %noloadLoss =0.2
 ~ wdg=1 bus=22726_1.3 conn= Wye kv=8.08 kva=5 tap=0.9
 ~ wdg=2 bus=BT_6_1487.1.0  conn= Wye kv=0.22 kva=5 tap=1
 ~ wdg=3 bus=BT_6_1487.0.2  conn= Wye kv=0.22 kva=5 tap=1

New Transformer.IT6_1508 phases=1 Windings=3 Xhl=0.5 %loadLoss =0.5 %noloadLoss =0.2
 ~ wdg=1 bus=21323_1.2 conn= Wye kv=8.08 kva=25 tap=0.9
 ~ wdg=2 bus=BT_6_1508.1.0  conn= Wye kv=0.22 kva=25 tap=1
 ~ wdg=3 bus=BT_6_1508.0.2  conn= Wye kv=0.22 kva=25 tap=1

New Transformer.IT6_1517 phases=1 Windings=3 Xhl=0.5 %loadLoss =0.5 %noloadLoss =0.2
 ~ wdg=1 bus=21404_1.1 conn= Wye kv=8.08 kva=15 tap=0.9
 ~ wdg=2 bus=BT_6_1517.1.0  conn= Wye kv=0.22 kva=15 tap=1
 ~ wdg=3 bus=BT_6_1517.0.2  conn= Wye kv=0.22 kva=15 tap=1

New Transformer.IT6_1519 phases=1 Windings=3 Xhl=0.5 %loadLoss =0.5 %noloadLoss =0.2
 ~ wdg=1 bus=32129_1.2 conn= Wye kv=8.08 kva=10 tap=0.943
 ~ wdg=2 bus=BT_6_1519.1.0  conn= Wye kv=0.22 kva=10 tap=1
 ~ wdg=3 bus=BT_6_1519.0.2  conn= Wye kv=0.22 kva=10 tap=1

New Transformer.IT6_1582 phases=1 Windings=3 Xhl=0.5 %loadLoss =0.5 %noloadLoss =0.2
 ~ wdg=1 bus=24126_1.3 conn= Wye kv=8.08 kva=15 tap=0.943
 ~ wdg=2 bus=BT_6_1582.1.0  conn= Wye kv=0.22 kva=15 tap=1
 ~ wdg=3 bus=BT_6_1582.0.2  conn= Wye kv=0.22 kva=15 tap=1

New Transformer.IT6_1583 phases=1 Windings=3 Xhl=0.5 %loadLoss =0.5 %noloadLoss =0.2
 ~ wdg=1 bus=24140_1.3 conn= Wye kv=8.08 kva=20 tap=0.9
 ~ wdg=2 bus=BT_6_1583.1.0  conn= Wye kv=0.22 kva=20 tap=1
 ~ wdg=3 bus=BT_6_1583.0.2  conn= Wye kv=0.22 kva=20 tap=1

New Transformer.IT6_1584 phases=1 Windings=3 Xhl=0.5 %loadLoss =0.5 %noloadLoss =0.2
 ~ wdg=1 bus=24157_1.3 conn= Wye kv=8.08 kva=15 tap=0.943
 ~ wdg=2 bus=BT_6_1584.1.0  conn= Wye kv=0.22 kva=15 tap=1
 ~ wdg=3 bus=BT_6_1584.0.2  conn= Wye kv=0.22 kva=15 tap=1

New Transformer.IT6_1585 phases=1 Windings=3 Xhl=0.5 %loadLoss =0.5 %noloadLoss =0.2
 ~ wdg=1 bus=24181_1.1 conn= Wye kv=8.08 kva=25 tap=0.9
 ~ wdg=2 bus=BT_6_1585.1.0  conn= Wye kv=0.22 kva=25 tap=1
 ~ wdg=3 bus=BT_6_1585.0.2  conn= Wye kv=0.22 kva=25 tap=1

New Transformer.IT6_1586 phases=1 Windings=3 Xhl=0.5 %loadLoss =0.5 %noloadLoss =0.2
 ~ wdg=1 bus=44236_1.1 conn= Wye kv=8.08 kva=25 tap=0.9
 ~ wdg=2 bus=BT_6_1586.1.0  conn= Wye kv=0.22 kva=25 tap=1
 ~ wdg=3 bus=BT_6_1586.0.2  conn= Wye kv=0.22 kva=25 tap=1

New Transformer.IT6_1587 phases=1 Windings=3 Xhl=0.5 %loadLoss =0.5 %noloadLoss =0.2
 ~ wdg=1 bus=25654_1.1 conn= Wye kv=8.08 kva=10 tap=0.943
 ~ wdg=2 bus=BT_6_1587.1.0  conn= Wye kv=0.22 kva=10 tap=1
 ~ wdg=3 bus=BT_6_1587.0.2  conn= Wye kv=0.22 kva=10 tap=1

New Transformer.IT6_1588 phases=1 Windings=3 Xhl=0.5 %loadLoss =0.5 %noloadLoss =0.2
 ~ wdg=1 bus=42496_1.1 conn= Wye kv=8.08 kva=15 tap=0.943
 ~ wdg=2 bus=BT_6_1588.1.0  conn= Wye kv=0.22 kva=15 tap=1
 ~ wdg=3 bus=BT_6_1588.0.2  conn= Wye kv=0.22 kva=15 tap=1

New Transformer.IT6_1590 phases=3 Windings=2 Xhl=0.5 %loadLoss =1.81 %noloadLoss =0.47
 ~ wdg=1 bus=82138_1 conn= Delta kv=14 kva=30 tap=0.986
 ~ wdg=2 bus=BT_6_1590 conn= Wye kv=0.38 kva=30 tap=1

New Transformer.IT6_1591 phases=1 Windings=3 Xhl=0.5 %loadLoss =0.5 %noloadLoss =0.2
 ~ wdg=1 bus=26047_1.2 conn= Wye kv=8.08 kva=10 tap=0.9
 ~ wdg=2 bus=BT_6_1591.1.0  conn= Wye kv=0.22 kva=10 tap=1
 ~ wdg=3 bus=BT_6_1591.0.2  conn= Wye kv=0.22 kva=10 tap=1

New Transformer.IT6_1592 phases=1 Windings=3 Xhl=0.5 %loadLoss =0.5 %noloadLoss =0.2
 ~ wdg=1 bus=26059_1.3 conn= Wye kv=8.08 kva=15 tap=0.9
 ~ wdg=2 bus=BT_6_1592.1.0  conn= Wye kv=0.22 kva=15 tap=1
 ~ wdg=3 bus=BT_6_1592.0.2  conn= Wye kv=0.22 kva=15 tap=1

New Transformer.IT6_1593 phases=3 Windings=2 Xhl=0.5 %loadLoss =1.81 %noloadLoss =0.47
 ~ wdg=1 bus=34887_1 conn= Delta kv=14 kva=30 tap=0.9
 ~ wdg=2 bus=BT_6_1593 conn= Wye kv=0.38 kva=30 tap=1

New Transformer.IT6_1594 phases=1 Windings=3 Xhl=0.5 %loadLoss =0.5 %noloadLoss =0.2
 ~ wdg=1 bus=27840_1.2 conn= Wye kv=8.08 kva=15 tap=0.943
 ~ wdg=2 bus=BT_6_1594.1.0  conn= Wye kv=0.22 kva=15 tap=1
 ~ wdg=3 bus=BT_6_1594.0.2  conn= Wye kv=0.22 kva=15 tap=1

New Transformer.IT6_1595 phases=3 Windings=2 Xhl=0.5 %loadLoss =1.65 %noloadLoss =0.41
 ~ wdg=1 bus=27856_1 conn= Delta kv=14 kva=45 tap=0.986
 ~ wdg=2 bus=BT_6_1595 conn= Wye kv=0.38 kva=45 tap=1

New Transformer.IT6_1596 phases=1 Windings=3 Xhl=0.5 %loadLoss =0.5 %noloadLoss =0.2
 ~ wdg=1 bus=54407_1.2 conn= Wye kv=8.08 kva=15 tap=0.943
 ~ wdg=2 bus=BT_6_1596.1.0  conn= Wye kv=0.22 kva=15 tap=1
 ~ wdg=3 bus=BT_6_1596.0.2  conn= Wye kv=0.22 kva=15 tap=1

New Transformer.IT6_1597 phases=1 Windings=3 Xhl=0.5 %loadLoss =0.5 %noloadLoss =0.2
 ~ wdg=1 bus=27925_1.2 conn= Wye kv=8.08 kva=10 tap=0.943
 ~ wdg=2 bus=BT_6_1597.1.0  conn= Wye kv=0.22 kva=10 tap=1
 ~ wdg=3 bus=BT_6_1597.0.2  conn= Wye kv=0.22 kva=10 tap=1

New Transformer.IT6_1598 phases=1 Windings=3 Xhl=0.5 %loadLoss =0.5 %noloadLoss =0.2
 ~ wdg=1 bus=27920_1.2 conn= Wye kv=8.08 kva=25 tap=0.9
 ~ wdg=2 bus=BT_6_1598.1.0  conn= Wye kv=0.22 kva=25 tap=1
 ~ wdg=3 bus=BT_6_1598.0.2  conn= Wye kv=0.22 kva=25 tap=1

New Transformer.IT6_1599 phases=1 Windings=3 Xhl=0.5 %loadLoss =0.5 %noloadLoss =0.2
 ~ wdg=1 bus=27871_1.2 conn= Wye kv=8.08 kva=10 tap=0.9
 ~ wdg=2 bus=BT_6_1599.1.0  conn= Wye kv=0.22 kva=10 tap=1
 ~ wdg=3 bus=BT_6_1599.0.2  conn= Wye kv=0.22 kva=10 tap=1

New Transformer.IT6_1600 phases=1 Windings=3 Xhl=0.5 %loadLoss =0.5 %noloadLoss =0.2
 ~ wdg=1 bus=27905_1.2 conn= Wye kv=8.08 kva=25 tap=0.943
 ~ wdg=2 bus=BT_6_1600.1.0  conn= Wye kv=0.22 kva=25 tap=1
 ~ wdg=3 bus=BT_6_1600.0.2  conn= Wye kv=0.22 kva=25 tap=1

New Transformer.IT6_1601 phases=1 Windings=3 Xhl=0.5 %loadLoss =0.5 %noloadLoss =0.2
 ~ wdg=1 bus=101166_1.1 conn= Wye kv=8.08 kva=15 tap=0.943
 ~ wdg=2 bus=BT_6_1601.1.0  conn= Wye kv=0.22 kva=15 tap=1
 ~ wdg=3 bus=BT_6_1601.0.2  conn= Wye kv=0.22 kva=15 tap=1

New Transformer.IT6_1602 phases=1 Windings=3 Xhl=0.5 %loadLoss =0.5 %noloadLoss =0.2
 ~ wdg=1 bus=82022_1.1 conn= Wye kv=8.08 kva=25 tap=0.943
 ~ wdg=2 bus=BT_6_1602.1.0  conn= Wye kv=0.22 kva=25 tap=1
 ~ wdg=3 bus=BT_6_1602.0.2  conn= Wye kv=0.22 kva=25 tap=1

New Transformer.IT6_1608 phases=1 Windings=3 Xhl=0.5 %loadLoss =0.5 %noloadLoss =0.2
 ~ wdg=1 bus=22245_1.1 conn= Wye kv=8.08 kva=15 tap=0.9
 ~ wdg=2 bus=BT_6_1608.1.0  conn= Wye kv=0.22 kva=15 tap=1
 ~ wdg=3 bus=BT_6_1608.0.2  conn= Wye kv=0.22 kva=15 tap=1

New Transformer.IT6_1609 phases=1 Windings=3 Xhl=0.5 %loadLoss =0.5 %noloadLoss =0.2
 ~ wdg=1 bus=47700_1.3 conn= Wye kv=8.08 kva=25 tap=0.9
 ~ wdg=2 bus=BT_6_1609.1.0  conn= Wye kv=0.22 kva=25 tap=1
 ~ wdg=3 bus=BT_6_1609.0.2  conn= Wye kv=0.22 kva=25 tap=1

New Transformer.IT6_1610 phases=1 Windings=3 Xhl=0.5 %loadLoss =0.5 %noloadLoss =0.2
 ~ wdg=1 bus=107743_1.3 conn= Wye kv=8.08 kva=10 tap=0.9
 ~ wdg=2 bus=BT_6_1610.1.0  conn= Wye kv=0.22 kva=10 tap=1
 ~ wdg=3 bus=BT_6_1610.0.2  conn= Wye kv=0.22 kva=10 tap=1

New Transformer.IT6_1611 phases=1 Windings=3 Xhl=0.5 %loadLoss =0.5 %noloadLoss =0.2
 ~ wdg=1 bus=69249_1.2 conn= Wye kv=8.08 kva=10 tap=0.9
 ~ wdg=2 bus=BT_6_1611.1.0  conn= Wye kv=0.22 kva=10 tap=1
 ~ wdg=3 bus=BT_6_1611.0.2  conn= Wye kv=0.22 kva=10 tap=1

New Transformer.IT6_1653 phases=3 Windings=2 Xhl=0.5 %loadLoss =2.14 %noloadLoss =0.54
 ~ wdg=1 bus=40375_1 conn= Delta kv=14 kva=15 tap=0.9
 ~ wdg=2 bus=BT_6_1653 conn= Wye kv=0.38 kva=15 tap=1

New Transformer.IT6_1684 phases=3 Windings=2 Xhl=0.5 %loadLoss =1.65 %noloadLoss =0.41
 ~ wdg=1 bus=23756_1 conn= Delta kv=14 kva=45 tap=0.943
 ~ wdg=2 bus=BT_6_1684 conn= Wye kv=0.38 kva=45 tap=1

New Transformer.IT6_1691 phases=1 Windings=3 Xhl=0.5 %loadLoss =0.5 %noloadLoss =0.2
 ~ wdg=1 bus=32105_1.3 conn= Wye kv=8.08 kva=15 tap=0.9
 ~ wdg=2 bus=BT_6_1691.1.0  conn= Wye kv=0.22 kva=15 tap=1
 ~ wdg=3 bus=BT_6_1691.0.2  conn= Wye kv=0.22 kva=15 tap=1

New Transformer.IT6_1722 phases=3 Windings=2 Xhl=0.5 %loadLoss =1.81 %noloadLoss =0.47
...